@<TRIPOS>MOLECULE
DB08796_1
   54    57     0     0     0
SMALL
USER_CHARGES
2-[2-(1-piperidyl)ethoxy]ethyl BLAHcarboxylate
@<TRIPOS>ATOM
      1 C1         -3.2091   -1.8812    0.3428 C.ar      1 <0>        -0.0934
      2 C2         -4.4361   -1.5010   -0.1681 C.ar      1 <0>        -0.1050
      3 C3         -4.6275   -0.2056   -0.6099 C.ar      1 <0>        -0.0718
      4 C4         -3.5900    0.7144   -0.5418 C.ar      1 <0>        -0.1310
      5 C5         -2.3519    0.3348   -0.0320 C.ar      1 <0>         0.1429
      6 C6         -2.1722   -0.9714    0.4119 C.ar      1 <0>        -0.1162
      7 N1         -1.2811    1.2247    0.0466 N.am      1 <0>        -0.4682
      8 C7         -1.3964    2.6080    0.1040 C.ar      1 <0>         0.3512
      9 C8         -2.5199    3.2693   -0.3934 C.ar      1 <0>        -0.1726
     10 C9         -2.5861    4.6549   -0.3257 C.ar      1 <0>        -0.0252
     11 C10        -1.5202    5.3408    0.2551 C.ar      1 <0>        -0.1671
     12 C11        -0.4391    4.6238    0.7260 C.ar      1 <0>         0.1277
     13 N2         -0.4039    3.3086    0.6416 N.ar      1 <0>        -0.4659
     14 S1         -3.8543    2.3645   -1.0996 S.3       1 <0>         0.0559
     15 C12        -0.0390    0.7023    0.0746 C.2       1 <0>         0.6589
     16 O1          0.1131   -0.5034    0.0815 O.2       1 <0>        -0.5328
     17 O2          1.0337    1.5164    0.0894 O.3       1 <0>        -0.3144
     18 C13         2.3407    0.8844    0.1132 C.3       1 <0>         0.0755
     19 C14         3.4277    1.9610    0.1273 C.3       1 <0>         0.0725
     20 O3          3.3453    2.7051    1.3444 O.3       1 <0>        -0.3880
     21 C15         4.3222    3.7418    1.4591 C.3       1 <0>         0.0275
     22 C16         4.1408    4.4682    2.7934 C.3       1 <0>         0.0027
     23 C17         3.8389    4.0202    5.1532 C.3       1 <0>        -0.0009
     24 C18         4.0380    2.9663    6.2449 C.3       1 <0>        -0.1482
     25 C19         5.5358    2.7094    6.4325 C.3       1 <0>        -0.1384
     26 C20         6.1398    2.2616    5.0986 C.3       1 <0>        -0.1474
     27 C21         5.8798    3.3359    4.0402 C.3       1 <0>        -0.0047
     28 H1         -3.0609   -2.8932    0.6895 H         1 <0>         0.1387
     29 H2         -5.2441   -2.2156   -0.2223 H         1 <0>         0.1401
     30 H3         -5.5860    0.0916   -1.0092 H         1 <0>         0.1424
     31 H4         -1.2165   -1.2757    0.8124 H         1 <0>         0.1743
     32 H5         -3.4472    5.1860   -0.7036 H         1 <0>         0.1543
     33 H6         -1.5372    6.4182    0.3282 H         1 <0>         0.1506
     34 H7          0.3925    5.1493    1.1718 H         1 <0>         0.1630
     35 H8          2.4293    0.2668    1.0070 H         1 <0>         0.0827
     36 H9          2.4587    0.2604   -0.7727 H         1 <0>         0.0952
     37 H10         4.4075    1.4890    0.0556 H         1 <0>         0.0844
     38 H11         3.2850    2.6324   -0.7194 H         1 <0>         0.0743
     39 H12         5.3206    3.3067    1.4150 H         1 <0>         0.0728
     40 H13         4.1981    4.4502    0.6400 H         1 <0>         0.0983
     41 H14         4.8222    5.3176    2.8403 H         1 <0>         0.1435
     42 H15         3.1132    4.8216    2.8779 H         1 <0>         0.1381
     43 H16         4.3215    4.9502    5.4539 H         1 <0>         0.1294
     44 H17         2.7730    4.1950    5.0072 H         1 <0>         0.1279
     45 H18         3.5439    2.0402    5.9511 H         1 <0>         0.0870
     46 H19         3.6104    3.3258    7.1808 H         1 <0>         0.1117
     47 H20         5.6807    1.9281    7.1785 H         1 <0>         0.0936
     48 H21         6.0246    3.6253    6.7645 H         1 <0>         0.0817
     49 H22         5.6788    1.3244    4.7867 H         1 <0>         0.0869
     50 H23         7.2140    2.1183    5.2154 H         1 <0>         0.1114
     51 H24         6.2962    3.0137    3.0857 H         1 <0>         0.1247
     52 H25         6.3527    4.2690    4.3462 H         1 <0>         0.1303
     53 N3          4.4203    3.5183    3.8901 N.4       1 <0>        -0.3946
     54 H26         3.9930    2.6126    3.6636 H         1 <0>         0.4339
@<TRIPOS>BOND
     1    1    6 ar
     2    1    2 ar
     3    1   28 1
     4    2    3 ar
     5    2   29 1
     6    3    4 ar
     7    3   30 1
     8    4   14 1
     9    4    5 ar
    10    5    6 ar
    11    5    7 1
    12    6   31 1
    13    7    8 1
    14    7   15 am
    15    8   13 ar
    16    8    9 ar
    17    9   10 ar
    18    9   14 1
    19   10   11 ar
    20   10   32 1
    21   11   12 ar
    22   11   33 1
    23   12   13 ar
    24   12   34 1
    25   15   16 2
    26   15   17 1
    27   17   18 1
    28   18   19 1
    29   18   35 1
    30   18   36 1
    31   19   20 1
    32   19   37 1
    33   19   38 1
    34   20   21 1
    35   21   22 1
    36   21   39 1
    37   21   40 1
    38   22   41 1
    39   22   42 1
    40   22   53 1
    41   23   24 1
    42   23   43 1
    43   23   44 1
    44   23   53 1
    45   24   25 1
    46   24   45 1
    47   24   46 1
    48   25   26 1
    49   25   47 1
    50   25   48 1
    51   26   27 1
    52   26   49 1
    53   26   50 1
    54   27   51 1
    55   27   52 1
    56   27   53 1
    57   53   54 1
