@<TRIPOS>MOLECULE
DB08802_2
   40    42     0     0     0
SMALL
USER_CHARGES

@<TRIPOS>ATOM
      1 C1          0.2462   -0.5251    1.1945 C.3       1 <0>        -0.1830
      2 C2         -0.3998   -0.0151   -0.0952 C.3       1 <0>         0.0042
      3 H1         -1.4288   -0.3704   -0.1513 H         1 <0>         0.1354
      4 C3          0.3861   -0.5363   -1.3000 C.3       1 <0>         0.0929
      5 N1          0.2941   -1.9976   -1.3480 N.pl3     1 <0>        -0.5413
      6 C4          1.3258   -2.7248   -0.7605 C.ar      1 <0>         0.1778
      7 C5          2.5725   -2.1238   -0.6170 C.ar      1 <0>        -0.1562
      8 C6          3.6174   -2.8140   -0.0334 C.ar      1 <0>        -0.0754
      9 C7          3.4331   -4.1088    0.4136 C.ar      1 <0>        -0.1203
     10 C8          2.1991   -4.7171    0.2748 C.ar      1 <0>        -0.0538
     11 C9          1.1461   -4.0306   -0.3126 C.ar      1 <0>        -0.1496
     12 S1         -0.4165   -4.8244   -0.4920 S.3       1 <0>         0.0463
     13 C10        -1.2592   -3.8348   -1.6789 C.ar      1 <0>        -0.1949
     14 C11        -0.8156   -2.5471   -1.9696 C.ar      1 <0>         0.3775
     15 N2         -1.4679   -1.8192   -2.8698 N.ar      1 <0>        -0.5203
     16 C12        -2.5355   -2.2724   -3.4984 C.ar      1 <0>         0.1403
     17 C13        -3.0284   -3.5359   -3.2478 C.ar      1 <0>        -0.1775
     18 C14        -2.3776   -4.3393   -2.3271 C.ar      1 <0>        -0.0154
     19 N3         -0.3880    1.4539   -0.1012 N.4       1 <0>        -0.3807
     20 C15        -1.0366    1.9438   -1.3248 C.3       1 <0>        -0.0514
     21 C16        -1.1158    1.9541    1.0728 C.3       1 <0>        -0.0506
     22 H2          0.2375   -1.6150    1.1989 H         1 <0>         0.1040
     23 H3          1.2752   -0.1698    1.2506 H         1 <0>         0.0836
     24 H4         -0.3137   -0.1538    2.0528 H         1 <0>         0.0855
     25 H5         -0.0307   -0.1157   -2.2152 H         1 <0>         0.1190
     26 H6          1.4312   -0.2409   -1.2075 H         1 <0>         0.1075
     27 H7          2.7243   -1.1124   -0.9640 H         1 <0>         0.1304
     28 H8          4.5819   -2.3401    0.0737 H         1 <0>         0.1375
     29 H9          4.2519   -4.6449    0.8703 H         1 <0>         0.1399
     30 H10         2.0549   -5.7290    0.6236 H         1 <0>         0.1408
     31 H11        -3.0324   -1.6429   -4.2217 H         1 <0>         0.1699
     32 H12        -3.9044   -3.8954   -3.7672 H         1 <0>         0.1516
     33 H13        -2.7397   -5.3336   -2.1112 H         1 <0>         0.1508
     34 H14        -1.1532    3.0260   -1.2659 H         1 <0>         0.1276
     35 H15        -0.4213    1.6911   -2.1883 H         1 <0>         0.1251
     36 H16        -2.0166    1.4779   -1.4281 H         1 <0>         0.1230
     37 H17        -0.6345    1.5906    1.9807 H         1 <0>         0.1259
     38 H18        -1.1070    3.0441    1.0684 H         1 <0>         0.1276
     39 H19        -2.1458    1.5989    1.0403 H         1 <0>         0.1214
     40 H20         0.5654    1.7827   -0.0711 H         1 <0>         0.4247
@<TRIPOS>BOND
     1    1    2 1
     2    1   22 1
     3    1   23 1
     4    1   24 1
     5    2    3 1
     6    2    4 1
     7    2   19 1
     8    4    5 1
     9    4   25 1
    10    4   26 1
    11    5   14 1
    12    5    6 1
    13    6   11 ar
    14    6    7 ar
    15    7    8 ar
    16    7   27 1
    17    8    9 ar
    18    8   28 1
    19    9   10 ar
    20    9   29 1
    21   10   11 ar
    22   10   30 1
    23   11   12 1
    24   12   13 1
    25   13   18 ar
    26   13   14 ar
    27   14   15 ar
    28   15   16 ar
    29   16   17 ar
    30   16   31 1
    31   17   18 ar
    32   17   32 1
    33   18   33 1
    34   19   20 1
    35   19   21 1
    36   19   40 1
    37   20   34 1
    38   20   35 1
    39   20   36 1
    40   21   37 1
    41   21   38 1
    42   21   39 1
