@<TRIPOS>MOLECULE
DB08811_2
   54    56     0     0     0
SMALL
USER_CHARGES

@<TRIPOS>ATOM
      1 C1         -1.4316   -0.4914    0.0006 C.3       1 <0>        -0.1563
      2 C2          0.0352   -0.0579    0.0406 C.3       1 <0>        -0.1239
      3 C3          0.7720   -0.6393   -1.1676 C.3       1 <0>        -0.0659
      4 H1          1.7862   -0.2447   -1.1074 H         1 <0>         0.0964
      5 C4          0.8802   -2.1281   -0.9231 C.ar      1 <0>        -0.0251
      6 C5          1.4924   -2.4426    0.2632 C.ar      1 <0>        -0.1780
      7 C6          1.6582   -3.7779    0.6150 C.ar      1 <0>         0.1293
      8 C7          1.2063   -4.7891   -0.2315 C.ar      1 <0>         0.0924
      9 C8          0.5889   -4.4742   -1.4289 C.ar      1 <0>        -0.1339
     10 C9          0.4226   -3.1361   -1.7805 C.ar      1 <0>        -0.0972
     11 C10        -0.2511   -2.9582   -3.0821 C.2       1 <0>         0.2148
     12 N1         -0.5579   -1.8414   -3.7002 N.2       1 <0>        -0.2875
     13 N2         -0.3906   -0.6091   -3.4073 N.2       1 <0>        -0.3169
     14 C11         0.1418   -0.0085   -2.3948 C.2       1 <0>         0.1606
     15 C12         0.1368    1.4978   -2.4396 C.3       1 <0>        -0.1192
     16 C13        -0.6298   -4.2021   -3.7822 C.ar      1 <0>        -0.0439
     17 C14        -1.9171   -4.7246   -3.6344 C.ar      1 <0>        -0.0863
     18 C15        -2.2689   -5.8857   -4.2885 C.ar      1 <0>        -0.1708
     19 C16        -1.3466   -6.5388   -5.0944 C.ar      1 <0>         0.1100
     20 C17        -0.0605   -6.0234   -5.2459 C.ar      1 <0>         0.1027
     21 C18         0.2967   -4.8561   -4.5984 C.ar      1 <0>        -0.1501
     22 O1          0.8409   -6.6659   -6.0359 O.3       1 <0>        -0.3028
     23 C19         2.1403   -6.0815   -6.1455 C.3       1 <0>         0.0239
     24 O2         -1.6981   -7.6833   -5.7367 O.3       1 <0>        -0.3033
     25 C20        -3.0318   -8.1559   -5.5369 C.3       1 <0>         0.0240
     26 O3          1.3736   -6.0919    0.1212 O.3       1 <0>        -0.3026
     27 C21         0.8877   -7.0785   -0.7912 C.3       1 <0>         0.0241
     28 O4          2.2636   -4.0982    1.7885 O.3       1 <0>        -0.2992
     29 C22         2.7034   -3.0138    2.6087 C.3       1 <0>         0.0225
     30 H2         -1.9165   -0.0524   -0.8714 H         1 <0>         0.0552
     31 H3         -1.4878   -1.5782   -0.0612 H         1 <0>         0.0534
     32 H4         -1.9355   -0.1523    0.9057 H         1 <0>         0.0612
     33 H5          0.0934    1.0302    0.0126 H         1 <0>         0.0802
     34 H6          0.4970   -0.4230    0.9580 H         1 <0>         0.0739
     35 H7          1.8432   -1.6594    0.9189 H         1 <0>         0.1489
     36 H8          0.2392   -5.2578   -2.0848 H         1 <0>         0.1525
     37 H9          1.0884    1.8526   -2.8354 H         1 <0>         0.0875
     38 H10        -0.6743    1.8395   -3.0826 H         1 <0>         0.0879
     39 H11        -0.0072    1.8907   -1.4331 H         1 <0>         0.0850
     40 H12        -2.6365   -4.2188   -3.0074 H         1 <0>         0.1297
     41 H13        -3.2644   -6.2885   -4.1735 H         1 <0>         0.1416
     42 H14         1.2913   -4.4529   -4.7190 H         1 <0>         0.1372
     43 H15         2.0530   -5.0765   -6.5584 H         1 <0>         0.0565
     44 H16         2.6000   -6.0301   -5.1586 H         1 <0>         0.0544
     45 H17         2.7590   -6.6920   -6.8032 H         1 <0>         0.1035
     46 H18        -3.7399   -7.4001   -5.8766 H         1 <0>         0.0573
     47 H19        -3.1807   -9.0745   -6.1045 H         1 <0>         0.1025
     48 H20        -3.1922   -8.3537   -4.4770 H         1 <0>         0.0563
     49 H21        -0.1855   -6.9481   -0.9298 H         1 <0>         0.0564
     50 H22         1.3941   -6.9674   -1.7500 H         1 <0>         0.0555
     51 H23         1.0841   -8.0727   -0.3897 H         1 <0>         0.1049
     52 H24         3.4285   -2.4135    2.0593 H         1 <0>         0.0577
     53 H25         1.8490   -2.3936    2.8797 H         1 <0>         0.0575
     54 H26         3.1680   -3.4073    3.5128 H         1 <0>         0.1052
@<TRIPOS>BOND
     1    1    2 1
     2    1   30 1
     3    1   31 1
     4    1   32 1
     5    2    3 1
     6    2   33 1
     7    2   34 1
     8    3    4 1
     9    3   14 1
    10    3    5 1
    11    5   10 ar
    12    5    6 ar
    13    6    7 ar
    14    6   35 1
    15    7    8 ar
    16    7   28 1
    17    8    9 ar
    18    8   26 1
    19    9   10 ar
    20    9   36 1
    21   10   11 1
    22   11   12 2
    23   11   16 1
    24   12   13 1
    25   13   14 2
    26   14   15 1
    27   15   37 1
    28   15   38 1
    29   15   39 1
    30   16   21 ar
    31   16   17 ar
    32   17   18 ar
    33   17   40 1
    34   18   19 ar
    35   18   41 1
    36   19   20 ar
    37   19   24 1
    38   20   21 ar
    39   20   22 1
    40   21   42 1
    41   22   23 1
    42   23   43 1
    43   23   44 1
    44   23   45 1
    45   24   25 1
    46   25   46 1
    47   25   47 1
    48   25   48 1
    49   26   27 1
    50   27   49 1
    51   27   50 1
    52   27   51 1
    53   28   29 1
    54   29   52 1
    55   29   53 1
    56   29   54 1
