@<TRIPOS>MOLECULE
DB08801_2
   47    49     0     0     0
SMALL
USER_CHARGES
N,N-dimethyl-2-[1-[1-(2-pyridyl)ethyl]-3H-inden-2-yl]-ethanamine
@<TRIPOS>ATOM
      1 C1         -0.8949    1.7969   -1.0201 C.3       1 <0>        -0.1558
      2 C2         -0.0127    1.0858    0.0080 C.3       1 <0>         0.0061
      3 H1          0.0629    0.0288   -0.2473 H         1 <0>         0.0921
      4 C3          1.3619    1.7034    0.0031 C.ar      1 <0>         0.1337
      5 C4          1.5617    2.9208   -0.6204 C.ar      1 <0>        -0.1683
      6 C5          2.8288    3.4831   -0.6139 C.ar      1 <0>        -0.0666
      7 C6          3.8547    2.7913    0.0122 C.ar      1 <0>        -0.1692
      8 C7          3.5807    1.5758    0.6096 C.ar      1 <0>         0.1005
      9 N1          2.3613    1.0736    0.5890 N.ar      1 <0>        -0.4910
     10 C8         -0.6230    1.2292    1.3784 C.2       1 <0>        -0.0270
     11 C9         -0.9885    0.2160    2.1441 C.2       1 <0>        -0.1528
     12 C10        -1.5510    0.7732    3.4309 C.3       1 <0>        -0.0505
     13 C11        -1.4559    2.2734    3.2953 C.ar      1 <0>        -0.0964
     14 C12        -0.8851    2.5185    2.0444 C.ar      1 <0>        -0.0787
     15 C13        -0.6786    3.8384    1.6368 C.ar      1 <0>        -0.0917
     16 C14        -1.0280    4.8788    2.4726 C.ar      1 <0>        -0.1188
     17 C15        -1.5873    4.6230    3.7116 C.ar      1 <0>        -0.1026
     18 C16        -1.8008    3.3172    4.1213 C.ar      1 <0>        -0.1011
     19 C17        -0.8650   -1.2446    1.7940 C.3       1 <0>        -0.0816
     20 C18         0.4379   -1.7995    2.3732 C.3       1 <0>        -0.0072
     21 C19         0.7144   -3.4058    0.5827 C.3       1 <0>        -0.0474
     22 C20         1.6681   -3.8480    2.7639 C.3       1 <0>        -0.0417
     23 H2         -0.9706    2.8539   -0.7648 H         1 <0>         0.0684
     24 H3         -0.4535    1.6932   -2.0113 H         1 <0>         0.0694
     25 H4         -1.8892    1.3502   -1.0165 H         1 <0>         0.0696
     26 H5          0.7401    3.4295   -1.1026 H         1 <0>         0.1396
     27 H6          3.0136    4.4350   -1.0894 H         1 <0>         0.1389
     28 H7          4.8551    3.1976    0.0331 H         1 <0>         0.1383
     29 H8          4.3741    1.0308    1.0993 H         1 <0>         0.1562
     30 H9         -2.5913    0.4704    3.5502 H         1 <0>         0.1025
     31 H10        -0.9585    0.4329    4.2801 H         1 <0>         0.0975
     32 H11        -0.2423    4.0441    0.6705 H         1 <0>         0.1217
     33 H12        -0.8636    5.8988    2.1579 H         1 <0>         0.1288
     34 H13        -1.8582    5.4427    4.3604 H         1 <0>         0.1310
     35 H14        -2.2376    3.1190    5.0889 H         1 <0>         0.1263
     36 H15        -1.7103   -1.7911    2.2120 H         1 <0>         0.0962
     37 H16        -0.8585   -1.3591    0.7100 H         1 <0>         0.0945
     38 H17         1.2832   -1.2529    1.9551 H         1 <0>         0.1424
     39 H18         0.4314   -1.6850    3.4572 H         1 <0>         0.1289
     40 H19         1.6128   -2.8885    0.2460 H         1 <0>         0.1247
     41 H20         0.8013   -4.4688    0.3577 H         1 <0>         0.1225
     42 H21        -0.1551   -2.9956    0.0691 H         1 <0>         0.1205
     43 H22         1.4920   -3.7592    3.8359 H         1 <0>         0.1208
     44 H23         1.7348   -4.9016    2.4926 H         1 <0>         0.1222
     45 H24         2.6011   -3.3467    2.5062 H         1 <0>         0.1232
     46 N2          0.5339   -3.2363    2.0399 N.4       1 <0>        -0.3974
     47 H25        -0.3347   -3.7036    2.3250 H         1 <0>         0.4293
@<TRIPOS>BOND
     1    1    2 1
     2    1   23 1
     3    1   24 1
     4    1   25 1
     5    2    3 1
     6    2    4 1
     7    2   10 1
     8    4    9 ar
     9    4    5 ar
    10    5    6 ar
    11    5   26 1
    12    6    7 ar
    13    6   27 1
    14    7    8 ar
    15    7   28 1
    16    8    9 ar
    17    8   29 1
    18   10   14 1
    19   10   11 2
    20   11   12 1
    21   11   19 1
    22   12   13 1
    23   12   30 1
    24   12   31 1
    25   13   18 ar
    26   13   14 ar
    27   14   15 ar
    28   15   16 ar
    29   15   32 1
    30   16   17 ar
    31   16   33 1
    32   17   18 ar
    33   17   34 1
    34   18   35 1
    35   19   20 1
    36   19   36 1
    37   19   37 1
    38   20   38 1
    39   20   39 1
    40   20   46 1
    41   21   40 1
    42   21   41 1
    43   21   42 1
    44   21   46 1
    45   22   43 1
    46   22   44 1
    47   22   45 1
    48   22   46 1
    49   46   47 1
