@<TRIPOS>MOLECULE
DB08820_1
57   59    1
SMALL
USER_CHARGES


@<TRIPOS>ATOM
      1 C1          3.2951   -2.7021   -0.3867 C.3       1 UNK        -0.1800 
      2 C2          2.5382   -1.8475    0.6559 C.3       1 UNK         0.1150 
      3 C3          1.1163   -2.4449    0.7443 C.3       1 UNK        -0.1800 
      4 C4          3.1787   -2.0592    2.0467 C.3       1 UNK        -0.1800 
      5 C5          2.6454   -0.3422    0.2667 C.ar      1 UNK        -0.1150 
      6 C6          3.9574    0.1891    0.1795 C.ar      1 UNK        -0.1150 
      7 C7          4.2558    1.5334   -0.1502 C.ar      1 UNK        -0.1150 
      8 C8          5.7562    1.9372   -0.1951 C.3       1 UNK         0.1150 
      9 C9          6.3946    1.6894    1.1901 C.3       1 UNK        -0.1800 
     10 C10         6.4864    1.0766   -1.2504 C.3       1 UNK        -0.1800 
     11 C11         6.0489    3.4123   -0.5536 C.3       1 UNK        -0.1800 
     12 C12         3.1540    2.3920   -0.4142 C.ar      1 UNK         0.1500 
     13 O13         3.2762    3.7065   -0.7568 O.3       1 UNK        -0.5850 
     14 C14         1.8425    1.8957   -0.3334 C.ar      1 UNK        -0.1150 
     15 C15         1.5634    0.5556    0.0150 C.ar      1 UNK         0.0850 
     16 N16         0.2005    0.1568    0.0280 N.am      1 UNK        -0.3850 
     17 C17        -0.8204    0.7766    0.6548 C.2       1 UNK         0.5567 
     18 O18        -0.6360    1.7830    1.3437 O.2       1 UNK        -0.5000 
     19 C19        -2.1314    0.1273    0.4757 C.ar      1 UNK        -0.0567 
     20 C20        -3.1431    0.6111    1.2396 C.ar      1 UNK        -0.0970 
     21 N21        -4.4423    0.1383    1.2290 N.pl3     1 UNK        -0.5717 
     22 C22        -2.4621   -1.0052   -0.4626 C.ar      1 UNK         0.5850 
     23 O23        -1.6329   -1.5000   -1.2282 O.2       1 UNK        -0.4700 
     24 C24        -3.8702   -1.5162   -0.4444 C.ar      1 UNK        -0.1150 
     25 C25        -4.8292   -0.9216    0.4100 C.ar      1 UNK         0.2000 
     26 C26        -4.2617   -2.5912   -1.2753 C.ar      1 UNK        -0.1150 
     27 C27        -5.5893   -3.0619   -1.2509 C.ar      1 UNK        -0.1150 
     28 C28        -6.5363   -2.4636   -0.3979 C.ar      1 UNK        -0.1150 
     29 C29        -6.1569   -1.3926    0.4333 C.ar      1 UNK        -0.1150 
     30 H30        -5.1321    0.5579    1.8364 H         1 UNK         0.3537 
     31 H31         4.1767    3.9903   -0.7940 H         1 UNK         0.4350 
     32 H32        -0.0103   -0.7301   -0.4095 H         1 UNK         0.3000 
     33 H33         4.3579   -2.4678   -0.4355 H         1 UNK         0.0600 
     34 H34         3.2235   -3.7660   -0.1573 H         1 UNK         0.0600 
     35 H35         2.8826   -2.5566   -1.3858 H         1 UNK         0.0600 
     36 H36         0.5053   -1.9451    1.4963 H         1 UNK         0.0600 
     37 H37         0.6051   -2.4110   -0.2166 H         1 UNK         0.0600 
     38 H38         1.1494   -3.4967    1.0313 H         1 UNK         0.0600 
     39 H39         2.6778   -1.4549    2.8040 H         1 UNK         0.0600 
     40 H40         3.1097   -3.1006    2.3633 H         1 UNK         0.0600 
     41 H41         4.2363   -1.7980    2.0683 H         1 UNK         0.0600 
     42 H42         4.7850   -0.4713    0.3788 H         1 UNK         0.1150 
     43 H43         7.4458    1.9799    1.2018 H         1 UNK         0.0600 
     44 H44         5.8884    2.2675    1.9642 H         1 UNK         0.0600 
     45 H45         6.3578    0.6421    1.4886 H         1 UNK         0.0600 
     46 H46         7.5410    1.3452   -1.3225 H         1 UNK         0.0600 
     47 H47         6.4509    0.0119   -1.0212 H         1 UNK         0.0600 
     48 H48         6.0473    1.2125   -2.2394 H         1 UNK         0.0600 
     49 H49         7.1221    3.6077   -0.5575 H         1 UNK         0.0600 
     50 H50         5.6902    3.6694   -1.5509 H         1 UNK         0.0600 
     51 H51         5.6165    4.1023    0.1718 H         1 UNK         0.0600 
     52 H52         1.0283    2.5707   -0.5553 H         1 UNK         0.1150 
     53 H53        -3.0128    1.4214    1.9436 H         1 UNK         0.1150 
     54 H54        -3.5503   -3.0636   -1.9372 H         1 UNK         0.1150 
     55 H55        -5.8814   -3.8836   -1.8884 H         1 UNK         0.1150 
     56 H56        -7.5536   -2.8262   -0.3813 H         1 UNK         0.1150 
     57 H57        -6.8866   -0.9364    1.0862 H         1 UNK         0.1150 
@<TRIPOS>BOND
     1    1    2 1    
     2    1   33 1    
     3    1   34 1    
     4    1   35 1    
     5    2    3 1    
     6    2    4 1    
     7    2    5 1    
     8    3   36 1    
     9    3   37 1    
    10    3   38 1    
    11    4   39 1    
    12    4   40 1    
    13    4   41 1    
    14    5   15 ar   
    15    5    6 ar   
    16    6    7 ar   
    17    6   42 1    
    18    7    8 1    
    19    7   12 ar   
    20    8    9 1    
    21    8   10 1    
    22    8   11 1    
    23    9   43 1    
    24    9   44 1    
    25    9   45 1    
    26   10   46 1    
    27   10   47 1    
    28   10   48 1    
    29   11   49 1    
    30   11   50 1    
    31   11   51 1    
    32   12   13 1    
    33   12   14 ar   
    34   13   31 1    
    35   14   15 ar   
    36   14   52 1    
    37   15   16 1    
    38   16   17 am   BACKBONE|DICT|INTERRES
    39   16   32 1    
    40   17   18 2    
    41   17   19 1    
    42   19   20 ar   
    43   19   22 ar   
    44   20   21 ar   
    45   20   53 1    
    46   21   30 1    
    47   21   25 ar   
    48   22   23 2    
    49   22   24 ar   
    50   24   25 ar   
    51   24   26 ar   
    52   25   29 ar   
    53   26   27 ar   
    54   26   54 1    
    55   27   28 ar   
    56   27   55 1    
    57   28   29 ar   
    58   28   56 1    
    59   29   57 1    
@<TRIPOS>SUBSTRUCTURE
     1 UNK         1 GROUP             0       ****    0 ROOT    
