@<TRIPOS>MOLECULE
DB08810_2
   60    62     0     0     0
SMALL
USER_CHARGES
4-amino-N-[1-(1-cyclohex-3-enylmethyl)-4-piperidyl]-2-ethoxy-5-nitro-benzamide
@<TRIPOS>ATOM
      1 C1          5.6270    4.5660   -2.9797 C.3       1 <0>        -0.1519
      2 C2          4.3368    5.2975   -2.6041 C.3       1 <0>         0.0421
      3 O1          3.4345    4.3819   -1.9800 O.3       1 <0>        -0.2671
      4 C3          2.2343    4.8740   -1.5830 C.ar      1 <0>         0.2807
      5 C4          1.9273    6.2078   -1.7878 C.ar      1 <0>        -0.3035
      6 C5          0.6962    6.7055   -1.3793 C.ar      1 <0>         0.3453
      7 C6         -0.2308    5.8662   -0.7638 C.ar      1 <0>        -0.1570
      8 C7          0.0596    4.5480   -0.5622 C.ar      1 <0>         0.0577
      9 C8          1.2971    4.0330   -0.9627 C.ar      1 <0>        -0.2348
     10 C9          1.6131    2.6124   -0.7397 C.2       1 <0>         0.5794
     11 O2          2.6878    2.1657   -1.0932 O.2       1 <0>        -0.5061
     12 N1          0.7116    1.8070   -0.1439 N.am      1 <0>        -0.7335
     13 C10         1.0260    0.3935    0.0780 C.3       1 <0>         0.1402
     14 C11         0.6878   -0.4097   -1.1810 C.3       1 <0>        -0.1634
     15 C12         0.9594   -1.8934   -0.9219 C.3       1 <0>         0.0020
     16 C13         0.4852   -1.6282    1.4397 C.3       1 <0>         0.0019
     17 C14         0.1979   -0.1369    1.2517 C.3       1 <0>        -0.1589
     18 C15         0.2752   -3.8036    0.3985 C.3       1 <0>        -0.0021
     19 C16        -0.9169   -4.3232    1.2047 C.3       1 <0>        -0.1172
     20 H1         -0.9791   -3.7887    2.1526 H         1 <0>         0.0964
     21 C17        -0.7453   -5.8243    1.4695 C.3       1 <0>        -0.1114
     22 C18        -1.8531   -6.2773    2.4231 C.3       1 <0>        -0.0981
     23 C19        -3.1868   -5.7952    1.9322 C.2       1 <0>        -0.1381
     24 C20        -3.3406   -4.8525    1.0586 C.2       1 <0>        -0.1711
     25 C21        -2.2071   -4.1119    0.4094 C.3       1 <0>        -0.0964
     26 N2         -1.5398    6.4060   -0.3321 N.pl3     1 <0>         0.0375
     27 O3         -1.6102    7.5254    0.1430 O.2       1 <0>        -0.1694
     28 O4         -2.5464    5.7309   -0.4519 O.3       1 <0>        -0.1485
     29 N3          0.3880    8.0459   -1.5847 N.pl3     1 <0>        -0.8335
     30 H2          6.3153    5.2644   -3.4557 H         1 <0>         0.0848
     31 H3          6.0881    4.1575   -2.0804 H         1 <0>         0.0699
     32 H4          5.3969    3.7549   -3.6705 H         1 <0>         0.0694
     33 H5          3.8757    5.7059   -3.5034 H         1 <0>         0.0716
     34 H6          4.5669    6.1086   -1.9133 H         1 <0>         0.0720
     35 H7          2.6436    6.8608   -2.2641 H         1 <0>         0.1586
     36 H8         -0.6654    3.9024   -0.0890 H         1 <0>         0.1521
     37 H9         -0.1470    2.1623    0.1344 H         1 <0>         0.4029
     38 H10         2.0871    0.2874    0.3036 H         1 <0>         0.1078
     39 H11        -0.3645   -0.2713   -1.4291 H         1 <0>         0.0906
     40 H12         1.3061   -0.0649   -2.0097 H         1 <0>         0.1191
     41 H13         2.0149   -2.0330   -0.6884 H         1 <0>         0.1347
     42 H14         0.7049   -2.4698   -1.8113 H         1 <0>         0.1324
     43 H15         1.5429   -1.7691    1.6621 H         1 <0>         0.1356
     44 H16        -0.1138   -2.0122    2.2655 H         1 <0>         0.1339
     45 H17         0.4664    0.4028    2.1598 H         1 <0>         0.1206
     46 H18        -0.8624    0.0060    1.0429 H         1 <0>         0.0947
     47 H19         0.2989   -4.2963   -0.5735 H         1 <0>         0.1318
     48 H20         1.1986   -4.0172    0.9368 H         1 <0>         0.1349
     49 H21        -0.8227   -6.3732    0.5309 H         1 <0>         0.0776
     50 H22         0.2294   -6.0075    1.9218 H         1 <0>         0.0788
     51 H23        -1.8601   -7.3659    2.4777 H         1 <0>         0.0858
     52 H24        -1.6644   -5.8690    3.4160 H         1 <0>         0.0813
     53 H25        -4.0734   -6.2638    2.3330 H         1 <0>         0.1126
     54 H26        -4.3477   -4.5782    0.7816 H         1 <0>         0.1128
     55 H27        -2.4394   -3.0475    0.3739 H         1 <0>         0.0671
     56 H28        -2.0705   -4.4838   -0.6061 H         1 <0>         0.0859
     57 H29         1.0715    8.6580   -1.8998 H         1 <0>         0.4168
     58 H30        -0.5104    8.3689   -1.4130 H         1 <0>         0.4166
     59 N4          0.1143   -2.3480    0.2026 N.4       1 <0>        -0.3982
     60 H31        -0.8684   -2.1478   -0.0172 H         1 <0>         0.4243
@<TRIPOS>BOND
     1    1    2 1
     2    1   30 1
     3    1   31 1
     4    1   32 1
     5    2    3 1
     6    2   33 1
     7    2   34 1
     8    3    4 1
     9    4    9 ar
    10    4    5 ar
    11    5    6 ar
    12    5   35 1
    13    6    7 ar
    14    6   29 1
    15    7    8 ar
    16    7   26 1
    17    8    9 ar
    18    8   36 1
    19    9   10 1
    20   10   11 2
    21   10   12 am
    22   12   13 1
    23   12   37 1
    24   13   17 1
    25   13   14 1
    26   13   38 1
    27   14   15 1
    28   14   39 1
    29   14   40 1
    30   15   41 1
    31   15   42 1
    32   15   59 1
    33   16   17 1
    34   16   43 1
    35   16   44 1
    36   16   59 1
    37   17   45 1
    38   17   46 1
    39   18   19 1
    40   18   47 1
    41   18   48 1
    42   18   59 1
    43   19   20 1
    44   19   25 1
    45   19   21 1
    46   21   22 1
    47   21   49 1
    48   21   50 1
    49   22   23 1
    50   22   51 1
    51   22   52 1
    52   23   24 2
    53   23   53 1
    54   24   25 1
    55   24   54 1
    56   25   55 1
    57   25   56 1
    58   26   27 2
    59   26   28 1
    60   29   57 1
    61   29   58 1
    62   59   60 1
