@<TRIPOS>MOLECULE
DB08807_1
   57    59     0     0     0
SMALL
USER_CHARGES

@<TRIPOS>ATOM
      1 C1         -0.0184    1.5028    0.0103 C.3       1 <0>        -0.0982
      2 C2          0.0021   -0.0041    0.0020 C.2       1 <0>         0.0810
      3 C3          0.0074   -0.7688   -1.1009 C.2       1 <0>        -0.1921
      4 C4          0.0284   -2.1638   -0.6544 C.ar      1 <0>        -0.1266
      5 C5          0.0343   -2.1233    0.7506 C.ar      1 <0>         0.1330
      6 N1          0.0239   -0.7965    1.1186 N.pl3     1 <0>        -0.5892
      7 H1          0.0291   -0.4715    2.0326 H         1 <0>         0.4199
      8 C6          0.0538   -3.3147    1.4698 C.ar      1 <0>        -0.1550
      9 C7          0.0676   -4.5211    0.8049 C.ar      1 <0>        -0.0609
     10 C8          0.0618   -4.5662   -0.5819 C.ar      1 <0>        -0.2369
     11 C9          0.0425   -3.3969   -1.3176 C.ar      1 <0>         0.1660
     12 O1          0.0372   -3.4433   -2.6756 O.3       1 <0>        -0.3089
     13 C10         0.0523   -4.7378   -3.2806 C.3       1 <0>         0.0620
     14 C11         0.0436   -4.5892   -4.8033 C.3       1 <0>         0.0735
     15 H2          0.1447   -5.5715   -5.2648 H         1 <0>         0.1287
     16 C12         1.2112   -3.7000   -5.2357 C.3       1 <0>        -0.0392
     17 N2          1.2029   -3.5573   -6.6977 N.4       1 <0>        -0.5054
     18 C13         2.3239   -2.7035   -7.1128 C.3       1 <0>         0.0534
     19 C14         3.6421   -3.3417   -6.6702 C.3       1 <0>        -0.1781
     20 C15         2.3152   -2.5549   -8.6356 C.3       1 <0>        -0.1768
     21 C16         2.1820   -1.3247   -6.4650 C.3       1 <0>        -0.1793
     22 O2         -1.1876   -3.9931   -5.2167 O.3       1 <0>        -0.3255
     23 C17        -1.6505   -4.3290   -6.4364 C.2       1 <0>         0.5065
     24 O3         -1.0262   -5.1066   -7.1300 O.2       1 <0>        -0.5163
     25 C18        -2.9174   -3.7517   -6.9303 C.ar      1 <0>        -0.1539
     26 C19        -3.6346   -2.8532   -6.1379 C.ar      1 <0>        -0.0547
     27 C20        -4.8170   -2.3179   -6.6053 C.ar      1 <0>        -0.1306
     28 C21        -5.2925   -2.6695   -7.8562 C.ar      1 <0>        -0.0638
     29 C22        -4.5870   -3.5597   -8.6465 C.ar      1 <0>        -0.1295
     30 C23        -3.4001   -4.0977   -8.1940 C.ar      1 <0>        -0.0479
     31 H3          1.0042    1.8801    0.0026 H         1 <0>         0.0802
     32 H4         -0.5455    1.8639   -0.8728 H         1 <0>         0.0864
     33 H5         -0.5286    1.8543    0.9071 H         1 <0>         0.0719
     34 H6         -0.0026   -0.4216   -2.1235 H         1 <0>         0.1443
     35 H7          0.0585   -3.2934    2.5496 H         1 <0>         0.1258
     36 H8          0.0834   -5.4419    1.3691 H         1 <0>         0.1322
     37 H9          0.0731   -5.5199   -1.0886 H         1 <0>         0.1270
     38 H10         0.9511   -5.2721   -2.9728 H         1 <0>         0.0995
     39 H11        -0.8286   -5.2967   -2.9650 H         1 <0>         0.0950
     40 H12         1.1101   -2.7177   -4.7742 H         1 <0>         0.1568
     41 H13         2.1504   -4.1546   -4.9204 H         1 <0>         0.1551
     42 H14         1.2964   -4.4666   -7.1249 H         1 <0>         0.4308
     43 H15         3.7432   -4.3240   -7.1317 H         1 <0>         0.0834
     44 H16         4.4740   -2.7083   -6.9782 H         1 <0>         0.1083
     45 H17         3.6483   -3.4476   -5.5854 H         1 <0>         0.0827
     46 H18         1.3761   -2.1003   -8.9509 H         1 <0>         0.0808
     47 H19         3.1470   -1.9215   -8.9436 H         1 <0>         0.1089
     48 H20         2.4163   -3.5372   -9.0971 H         1 <0>         0.0834
     49 H21         2.1882   -1.4306   -5.3802 H         1 <0>         0.0850
     50 H22         3.0138   -0.6912   -6.7730 H         1 <0>         0.1079
     51 H23         1.2429   -0.8701   -6.7803 H         1 <0>         0.0814
     52 H24        -3.2648   -2.5782   -5.1612 H         1 <0>         0.1416
     53 H25        -5.3729   -1.6231   -5.9933 H         1 <0>         0.1391
     54 H26        -6.2187   -2.2475   -8.2173 H         1 <0>         0.1381
     55 H27        -4.9642   -3.8304   -9.6216 H         1 <0>         0.1405
     56 H28        -2.8480   -4.7886   -8.8138 H         1 <0>         0.1401
     57 H29         0.3335   -3.1364   -6.9896 H         1 <0>         0.4183
@<TRIPOS>BOND
     1    1    2 1
     2    1   31 1
     3    1   32 1
     4    1   33 1
     5    2    6 1
     6    2    3 2
     7    3    4 1
     8    3   34 1
     9    4   11 ar
    10    4    5 ar
    11    5    6 1
    12    5    8 ar
    13    6    7 1
    14    8    9 ar
    15    8   35 1
    16    9   10 ar
    17    9   36 1
    18   10   11 ar
    19   10   37 1
    20   11   12 1
    21   12   13 1
    22   13   14 1
    23   13   38 1
    24   13   39 1
    25   14   15 1
    26   14   16 1
    27   14   22 1
    28   16   17 1
    29   16   40 1
    30   16   41 1
    31   17   18 1
    32   17   42 1
    33   17   57 1
    34   18   19 1
    35   18   20 1
    36   18   21 1
    37   19   43 1
    38   19   44 1
    39   19   45 1
    40   20   46 1
    41   20   47 1
    42   20   48 1
    43   21   49 1
    44   21   50 1
    45   21   51 1
    46   22   23 1
    47   23   24 2
    48   23   25 1
    49   25   30 ar
    50   25   26 ar
    51   26   27 ar
    52   26   52 1
    53   27   28 ar
    54   27   53 1
    55   28   29 ar
    56   28   54 1
    57   29   30 ar
    58   29   55 1
    59   30   56 1
