@<TRIPOS>MOLECULE
DB08807_2
   57    59     0     0     0
SMALL
USER_CHARGES
[1-[(2-methyl-1H-indol-4-yl)oxymethyl]-2-tert-butylamino-ethyl] benzoate
@<TRIPOS>ATOM
      1 C1          1.3456   -5.7585    2.7304 C.3       1 <0>        -0.0982
      2 C2          1.4509   -4.3614    3.2854 C.2       1 <0>         0.0809
      3 C3          0.9296   -3.2640    2.7150 C.2       1 <0>        -0.1919
      4 C4          1.2645   -2.1311    3.5811 C.ar      1 <0>        -0.1266
      5 C5          1.9966   -2.6652    4.6557 C.ar      1 <0>         0.1331
      6 N1          2.0926   -4.0227    4.4468 N.pl3     1 <0>        -0.5892
      7 H1          2.5470   -4.6463    5.0346 H         1 <0>         0.4199
      8 C6          2.4594   -1.8170    5.6575 C.ar      1 <0>        -0.1550
      9 C7          2.1997   -0.4657    5.5910 C.ar      1 <0>        -0.0609
     10 C8          1.4827    0.0669    4.5292 C.ar      1 <0>        -0.2371
     11 C9          1.0076   -0.7558    3.5261 C.ar      1 <0>         0.1661
     12 O1          0.3006   -0.2330    2.4901 O.3       1 <0>        -0.3084
     13 C10         0.0786    1.1786    2.5031 C.3       1 <0>         0.0618
     14 C11        -0.7288    1.5792    1.2668 C.3       1 <0>         0.0740
     15 H2         -0.8222    2.6646    1.2299 H         1 <0>         0.1297
     16 C12        -0.0127    1.0858    0.0080 C.3       1 <0>        -0.0320
     17 C13        -0.0624    1.1171   -2.4126 C.3       1 <0>         0.0571
     18 C14        -0.0422   -0.4124   -2.4445 C.3       1 <0>        -0.1785
     19 C15        -0.8294    1.6425   -3.6277 C.3       1 <0>        -0.1770
     20 C16         1.3725    1.6470   -2.4470 C.3       1 <0>        -0.1770
     21 O2         -2.0504    0.9819    1.3374 O.3       1 <0>        -0.3285
     22 C17        -3.0579    1.6547    0.7483 C.2       1 <0>         0.5094
     23 O3         -2.8384    2.7114    0.1909 O.2       1 <0>        -0.5197
     24 C18        -4.4296    1.1073    0.7801 C.ar      1 <0>        -0.1535
     25 C19        -4.6844   -0.1099    1.4150 C.ar      1 <0>        -0.0548
     26 C20        -5.9686   -0.6127    1.4455 C.ar      1 <0>        -0.1307
     27 C21        -7.0011    0.0810    0.8394 C.ar      1 <0>        -0.0644
     28 C22        -6.7547    1.2850    0.2036 C.ar      1 <0>        -0.1298
     29 C23        -5.4762    1.8020    0.1705 C.ar      1 <0>        -0.0482
     30 H3          2.1930   -5.9530    2.0729 H         1 <0>         0.0802
     31 H4          1.3498   -6.4765    3.5505 H         1 <0>         0.0719
     32 H5          0.4181   -5.8564    2.1664 H         1 <0>         0.0864
     33 H6          0.3694   -3.2239    1.7925 H         1 <0>         0.1445
     34 H7          3.0227   -2.2182    6.4870 H         1 <0>         0.1258
     35 H8          2.5621    0.1868    6.3716 H         1 <0>         0.1322
     36 H9          1.2911    1.1290    4.4891 H         1 <0>         0.1268
     37 H10         1.0373    1.6972    2.4947 H         1 <0>         0.0998
     38 H11        -0.4741    1.4512    3.4021 H         1 <0>         0.0950
     39 H12         0.0021   -0.0041    0.0020 H         1 <0>         0.1554
     40 H13         1.0099    1.4631    0.0003 H         1 <0>         0.1547
     41 H14        -1.0644   -0.7899   -2.4200 H         1 <0>         0.0805
     42 H15         0.4481   -0.7503   -3.3575 H         1 <0>         0.1074
     43 H16         0.5042   -0.7867   -1.5788 H         1 <0>         0.0841
     44 H17        -0.8439    2.7322   -3.6049 H         1 <0>         0.0833
     45 H18        -0.3391    1.3046   -4.5407 H         1 <0>         0.1082
     46 H19        -1.8517    1.2650   -3.6032 H         1 <0>         0.0806
     47 H20         1.9189    1.2727   -1.5813 H         1 <0>         0.0820
     48 H21         1.8627    1.3091   -3.3600 H         1 <0>         0.1076
     49 H22         1.3580    2.7367   -2.4242 H         1 <0>         0.0829
     50 H23        -3.8786   -0.6546    1.8845 H         1 <0>         0.1413
     51 H24        -6.1679   -1.5519    1.9400 H         1 <0>         0.1389
     52 H25        -8.0040   -0.3190    0.8630 H         1 <0>         0.1379
     53 H26        -7.5651    1.8213   -0.2675 H         1 <0>         0.1402
     54 H27        -5.2852    2.7419   -0.3260 H         1 <0>         0.1399
     55 N2         -0.7320    1.5785   -1.1818 N.4       1 <0>        -0.5152
     56 H28        -0.7459    2.6050   -1.1683 H         1 <0>         0.4344
     57 H29        -1.6952    1.2229   -1.1667 H         1 <0>         0.4228
@<TRIPOS>BOND
     1    1    2 1
     2    1   30 1
     3    1   31 1
     4    1   32 1
     5    2    6 1
     6    2    3 2
     7    3    4 1
     8    3   33 1
     9    4   11 ar
    10    4    5 ar
    11    5    6 1
    12    5    8 ar
    13    6    7 1
    14    8    9 ar
    15    8   34 1
    16    9   10 ar
    17    9   35 1
    18   10   11 ar
    19   10   36 1
    20   11   12 1
    21   12   13 1
    22   13   14 1
    23   13   37 1
    24   13   38 1
    25   14   15 1
    26   14   16 1
    27   14   21 1
    28   16   39 1
    29   16   40 1
    30   16   55 1
    31   17   18 1
    32   17   19 1
    33   17   20 1
    34   17   55 1
    35   18   41 1
    36   18   42 1
    37   18   43 1
    38   19   44 1
    39   19   45 1
    40   19   46 1
    41   20   47 1
    42   20   48 1
    43   20   49 1
    44   21   22 1
    45   22   23 2
    46   22   24 1
    47   24   29 ar
    48   24   25 ar
    49   25   26 ar
    50   25   50 1
    51   26   27 ar
    52   26   51 1
    53   27   28 ar
    54   27   52 1
    55   28   29 ar
    56   28   53 1
    57   29   54 1
    58   55   56 1
    59   55   57 1
