@<TRIPOS>MOLECULE
DB08804_1
   75    78     0     0     0
SMALL
USER_CHARGES
(13-methyl-3-oxo-2,6,7,8,9,10,11,12,14,15,16,17-dodecahydro-1H-cyclopenta[a]phenanthren-17-yl) decanoate
@<TRIPOS>ATOM
      1 C1         -0.7348    2.0192    1.2692 C.3       1 <0>        -0.1543
      2 C2         -0.0187    1.5258    0.0104 C.3       1 <0>        -0.1263
      3 C3          0.0021   -0.0041    0.0020 C.3       1 <0>        -0.1211
      4 C4          0.7182   -0.4975   -1.2568 C.3       1 <0>        -0.1217
      5 C5          0.7390   -2.0273   -1.2652 C.3       1 <0>        -0.1202
      6 C6          1.4551   -2.5207   -2.5240 C.3       1 <0>        -0.1206
      7 C7          1.4758   -4.0506   -2.5324 C.3       1 <0>        -0.1196
      8 C8          2.1920   -4.5440   -3.7912 C.3       1 <0>        -0.1098
      9 C9          2.2127   -6.0738   -3.7996 C.3       1 <0>        -0.1146
     10 C10         2.9181   -6.5598   -5.0395 C.2       1 <0>         0.4571
     11 O1          3.3590   -5.7642   -5.8348 O.2       1 <0>        -0.5072
     12 O2          3.0566   -7.8766   -5.2603 O.3       1 <0>        -0.3457
     13 C11         3.7468   -8.2723   -6.4750 C.3       1 <0>         0.0979
     14 H1          3.5848   -7.5324   -7.2588 H         1 <0>         0.0874
     15 C12         5.2620   -8.4408   -6.2007 C.3       1 <0>        -0.1378
     16 C13         5.6201   -9.8986   -6.5989 C.3       1 <0>        -0.1134
     17 C14         4.5222  -10.2585   -7.6059 C.3       1 <0>        -0.0812
     18 H2          4.7219   -9.7886   -8.5689 H         1 <0>         0.0797
     19 C15         3.2648   -9.6449   -6.9335 C.3       1 <0>        -0.0614
     20 C16         2.1401   -9.6731   -7.9477 C.3       1 <0>        -0.1046
     21 C17         1.8383  -11.1453   -8.2691 C.3       1 <0>        -0.1170
     22 C18         3.0791  -11.8807   -8.7677 C.3       1 <0>        -0.0716
     23 H3          3.3716  -11.4686   -9.7334 H         1 <0>         0.0734
     24 C19         4.2536  -11.7414   -7.7883 C.3       1 <0>        -0.0743
     25 H4          3.9956  -12.1937   -6.8307 H         1 <0>         0.0866
     26 C20         5.4888  -12.4208   -8.3857 C.3       1 <0>        -0.1132
     27 C21         5.2280  -13.9240   -8.5056 C.3       1 <0>        -0.0971
     28 C22         3.9627  -14.1343   -9.3174 C.2       1 <0>        -0.0245
     29 C23         4.0054  -15.0142  -10.3171 C.2       1 <0>        -0.2437
     30 C24         2.8012  -15.2826  -11.1105 C.2       1 <0>         0.3863
     31 O3          2.8637  -15.7651  -12.2219 O.2       1 <0>        -0.4573
     32 C25         1.4743  -14.9262  -10.4694 C.3       1 <0>        -0.1591
     33 C26         1.5932  -13.4988   -9.9363 C.3       1 <0>        -0.1103
     34 C27         2.7336  -13.3645   -8.9426 C.3       1 <0>        -0.0594
     35 H5          2.3777  -13.7421   -7.9840 H         1 <0>         0.0907
     36 C28         2.8627  -10.4855   -5.7200 C.3       1 <0>        -0.1405
     37 H6         -1.7574    1.6419    1.2770 H         1 <0>         0.0533
     38 H7         -0.2076    1.6581    2.1523 H         1 <0>         0.0533
     39 H8         -0.7496    3.1091    1.2752 H         1 <0>         0.0534
     40 H9          1.0039    1.9031    0.0027 H         1 <0>         0.0603
     41 H10        -0.5459    1.8868   -0.8726 H         1 <0>         0.0603
     42 H11         0.5293   -0.3651    0.8851 H         1 <0>         0.0606
     43 H12        -1.0205   -0.3814    0.0098 H         1 <0>         0.0606
     44 H13         0.1910   -0.1364   -2.1398 H         1 <0>         0.0609
     45 H14         1.7408   -0.1202   -1.2645 H         1 <0>         0.0609
     46 H15         1.2661   -2.3884   -0.3821 H         1 <0>         0.0611
     47 H16        -0.2836   -2.4046   -1.2575 H         1 <0>         0.0611
     48 H17         0.9279   -2.1597   -3.4071 H         1 <0>         0.0625
     49 H18         2.4777   -2.1435   -2.5317 H         1 <0>         0.0625
     50 H19         2.0030   -4.4117   -1.6494 H         1 <0>         0.0644
     51 H20         0.4533   -4.4279   -2.5247 H         1 <0>         0.0644
     52 H21         1.6648   -4.1829   -4.6743 H         1 <0>         0.0715
     53 H22         3.2146   -4.1667   -3.7990 H         1 <0>         0.0715
     54 H23         2.7399   -6.4349   -2.9166 H         1 <0>         0.1047
     55 H24         1.1901   -6.4511   -3.7919 H         1 <0>         0.1046
     56 H25         5.8323   -7.7367   -6.8066 H         1 <0>         0.0747
     57 H26         5.4708   -8.2798   -5.1431 H         1 <0>         0.0738
     58 H27         6.6028   -9.9399   -7.0686 H         1 <0>         0.0709
     59 H28         5.5783  -10.5568   -5.7311 H         1 <0>         0.0738
     60 H29         2.4643   -9.1550   -8.8503 H         1 <0>         0.0637
     61 H30         1.2500   -9.1915   -7.5429 H         1 <0>         0.0677
     62 H31         1.0660  -11.1904   -9.0369 H         1 <0>         0.0678
     63 H32         1.4722  -11.6368   -7.3677 H         1 <0>         0.0710
     64 H33         5.6904  -12.0063   -9.3735 H         1 <0>         0.0664
     65 H34         6.3476  -12.2508   -7.7364 H         1 <0>         0.0726
     66 H35         5.1006  -14.3535   -7.5119 H         1 <0>         0.0844
     67 H36         6.0682  -14.4047   -9.0067 H         1 <0>         0.0778
     68 H37         4.9269  -15.5301  -10.5431 H         1 <0>         0.1335
     69 H38         0.7465  -14.9894  -11.1523 H         1 <0>         0.0829
     70 H39         1.2633  -15.6118   -9.6487 H         1 <0>         0.0988
     71 H40         0.6597  -13.2236   -9.4456 H         1 <0>         0.0832
     72 H41         1.7678  -12.8207  -10.7717 H         1 <0>         0.0695
     73 H42         2.0423   -9.9963   -5.1949 H         1 <0>         0.0620
     74 H43         2.5438  -11.4735   -6.0520 H         1 <0>         0.0649
     75 H44         3.7155  -10.5855   -5.0486 H         1 <0>         0.0574
@<TRIPOS>BOND
     1    1    2 1
     2    1   37 1
     3    1   38 1
     4    1   39 1
     5    2    3 1
     6    2   40 1
     7    2   41 1
     8    3    4 1
     9    3   42 1
    10    3   43 1
    11    4    5 1
    12    4   44 1
    13    4   45 1
    14    5    6 1
    15    5   46 1
    16    5   47 1
    17    6    7 1
    18    6   48 1
    19    6   49 1
    20    7    8 1
    21    7   50 1
    22    7   51 1
    23    8    9 1
    24    8   52 1
    25    8   53 1
    26    9   10 1
    27    9   54 1
    28    9   55 1
    29   10   11 2
    30   10   12 1
    31   12   13 1
    32   13   14 1
    33   13   19 1
    34   13   15 1
    35   15   16 1
    36   15   56 1
    37   15   57 1
    38   16   17 1
    39   16   58 1
    40   16   59 1
    41   17   18 1
    42   17   24 1
    43   17   19 1
    44   19   20 1
    45   19   36 1
    46   20   21 1
    47   20   60 1
    48   20   61 1
    49   21   22 1
    50   21   62 1
    51   21   63 1
    52   22   23 1
    53   22   34 1
    54   22   24 1
    55   24   25 1
    56   24   26 1
    57   26   27 1
    58   26   64 1
    59   26   65 1
    60   27   28 1
    61   27   66 1
    62   27   67 1
    63   28   34 1
    64   28   29 2
    65   29   30 1
    66   29   68 1
    67   30   31 2
    68   30   32 1
    69   32   33 1
    70   32   69 1
    71   32   70 1
    72   33   34 1
    73   33   71 1
    74   33   72 1
    75   34   35 1
    76   36   73 1
    77   36   74 1
    78   36   75 1
