@<TRIPOS>MOLECULE
DB08797_1
   17    17     0     0     0
SMALL
USER_CHARGES

@<TRIPOS>ATOM
      1 C1         -0.0166    1.3736    0.0096 C.ar      1 <0>        -0.1387
      2 C2          1.1700    2.0889    0.0021 C.ar      1 <0>        -0.0741
      3 C3          2.3828    1.4295   -0.0135 C.ar      1 <0>        -0.1565
      4 C4          2.4204    0.0430   -0.0213 C.ar      1 <0>         0.1702
      5 C5          1.2224   -0.6841   -0.0133 C.ar      1 <0>        -0.1740
      6 C6          0.0021   -0.0041    0.0020 C.ar      1 <0>        -0.0712
      7 C7          1.2497   -2.1592   -0.0220 C.2       1 <0>         0.5615
      8 O1          2.3137   -2.7475   -0.0362 O.2       1 <0>        -0.5240
      9 N1          0.0952   -2.8546   -0.0143 N.am      1 <0>        -0.8532
     10 O2          3.6113   -0.6062   -0.0371 O.3       1 <0>        -0.4783
     11 H1         -0.9604    1.8983    0.0260 H         1 <0>         0.1333
     12 H2          1.1460    3.1686    0.0082 H         1 <0>         0.1338
     13 H3          3.3035    1.9940   -0.0200 H         1 <0>         0.1377
     14 H4         -0.9253   -0.5575    0.0083 H         1 <0>         0.1305
     15 H5         -0.7536   -2.3853   -0.0030 H         1 <0>         0.3997
     16 H6          0.1132   -3.8244   -0.0200 H         1 <0>         0.4062
     17 H7          3.9658   -0.7992    0.8417 H         1 <0>         0.3973
@<TRIPOS>BOND
     1    1    6 ar
     2    1    2 ar
     3    1   11 1
     4    2    3 ar
     5    2   12 1
     6    3    4 ar
     7    3   13 1
     8    4    5 ar
     9    4   10 1
    10    5    6 ar
    11    5    7 1
    12    6   14 1
    13    7    8 2
    14    7    9 am
    15    9   15 1
    16    9   16 1
    17   10   17 1
