@<TRIPOS>MOLECULE
DB08810_1
   60    62     0     0     0
SMALL
USER_CHARGES
4-amino-N-[1-(1-cyclohex-3-enylmethyl)-4-piperidyl]-2-ethoxy-5-nitro-benzamide
@<TRIPOS>ATOM
      1 C1         -8.7386   -1.5665    7.4251 C.3       1 <0>        -0.1519
      2 C2         -8.3622   -0.1410    7.8339 C.3       1 <0>         0.0421
      3 O1         -7.2709    0.3125    7.0306 O.3       1 <0>        -0.2670
      4 C3         -6.8115    1.5668    7.2672 C.ar      1 <0>         0.2811
      5 C4         -7.3947    2.3472    8.2500 C.ar      1 <0>        -0.3042
      6 C5         -6.9192    3.6308    8.4877 C.ar      1 <0>         0.3457
      7 C6         -5.8568    4.1354    7.7397 C.ar      1 <0>        -0.1577
      8 C7         -5.2708    3.3720    6.7721 C.ar      1 <0>         0.0584
      9 C8         -5.7418    2.0797    6.5167 C.ar      1 <0>        -0.2353
     10 C9         -5.1139    1.2583    5.4686 C.2       1 <0>         0.5794
     11 O2         -5.5218    0.1331    5.2518 O.2       1 <0>        -0.5061
     12 N1         -4.0870    1.7530    4.7495 N.am      1 <0>        -0.7335
     13 C10        -3.4622    0.9356    3.7066 C.3       1 <0>         0.1401
     14 C11        -2.0216    1.4042    3.4837 C.3       1 <0>        -0.1590
     15 C12        -1.3935    0.5864    2.3528 C.3       1 <0>         0.0047
     16 C13        -3.5541    0.2752    1.3005 C.3       1 <0>        -0.0056
     17 C14        -4.2466    1.0836    2.4000 C.3       1 <0>        -0.1618
     18 C15        -1.5295    0.1029   -0.0154 C.3       1 <0>        -0.0009
     19 C16        -2.4212    0.2269   -1.2525 C.3       1 <0>        -0.1186
     20 H1         -3.3934   -0.2224   -1.0498 H         1 <0>         0.0997
     21 C17        -2.6020    1.7072   -1.6116 C.3       1 <0>        -0.1292
     22 C18        -3.6353    1.8098   -2.7356 C.3       1 <0>        -0.0932
     23 C19        -3.2948    0.8522   -3.8398 C.2       1 <0>        -0.1523
     24 C20        -2.4823   -0.1468   -3.7085 C.2       1 <0>        -0.1605
     25 C21        -1.7594   -0.4812   -2.4367 C.3       1 <0>        -0.0804
     26 N2         -5.3575    5.5042    8.0006 N.pl3     1 <0>         0.0392
     27 O3         -6.1410    6.3978    8.2673 O.2       1 <0>        -0.1752
     28 O4         -4.1630    5.7370    7.9484 O.3       1 <0>        -0.1449
     29 N3         -7.5056    4.4152    9.4751 N.pl3     1 <0>        -0.8342
     30 H2         -9.5710   -1.9124    8.0378 H         1 <0>         0.0848
     31 H3         -9.0310   -1.5781    6.3751 H         1 <0>         0.0694
     32 H4         -7.8820   -2.2245    7.5710 H         1 <0>         0.0699
     33 H5         -8.0698   -0.1294    8.8839 H         1 <0>         0.0718
     34 H6         -9.2188    0.5170    7.6880 H         1 <0>         0.0718
     35 H7         -8.2183    1.9593    8.8311 H         1 <0>         0.1586
     36 H8         -4.4449    3.7677    6.1997 H         1 <0>         0.1522
     37 H9         -3.7617    2.6503    4.9224 H         1 <0>         0.4029
     38 H10        -3.4616   -0.1099    4.0147 H         1 <0>         0.1078
     39 H11        -1.4467    1.2613    4.3987 H         1 <0>         0.1216
     40 H12        -2.0194    2.4602    3.2137 H         1 <0>         0.0947
     41 H13        -1.3828   -0.4678    2.6296 H         1 <0>         0.1351
     42 H14        -0.3725    0.9274    2.1820 H         1 <0>         0.1352
     43 H15        -4.1022    0.3899    0.3653 H         1 <0>         0.1348
     44 H16        -3.5333   -0.7776    1.5822 H         1 <0>         0.1352
     45 H17        -5.2615    0.7117    2.5407 H         1 <0>         0.1181
     46 H18        -4.2807    2.1346    2.1130 H         1 <0>         0.0897
     47 H19        -1.3723   -0.9507    0.2151 H         1 <0>         0.1345
     48 H20        -0.5688    0.5794   -0.2108 H         1 <0>         0.1310
     49 H21        -2.9549    2.2556   -0.7383 H         1 <0>         0.0574
     50 H22        -1.6516    2.1211   -1.9487 H         1 <0>         0.0839
     51 H23        -4.6229    1.5703   -2.3414 H         1 <0>         0.0787
     52 H24        -3.6404    2.8259   -3.1300 H         1 <0>         0.0841
     53 H25        -3.7567    1.0060   -4.8038 H         1 <0>         0.1119
     54 H26        -2.3138   -0.7788   -4.5679 H         1 <0>         0.1140
     55 H27        -0.7211   -0.1590   -2.5158 H         1 <0>         0.0845
     56 H28        -1.7899   -1.5589   -2.2763 H         1 <0>         0.0844
     57 H29        -8.2021    4.0442   10.0392 H         1 <0>         0.4160
     58 H30        -7.2182    5.3332    9.5996 H         1 <0>         0.4188
     59 N4         -2.1808    0.7912    1.1182 N.4       1 <0>        -0.3964
     60 H31        -2.2271    1.7967    0.9156 H         1 <0>         0.4250
@<TRIPOS>BOND
     1    1    2 1
     2    1   30 1
     3    1   31 1
     4    1   32 1
     5    2    3 1
     6    2   33 1
     7    2   34 1
     8    3    4 1
     9    4    9 ar
    10    4    5 ar
    11    5    6 ar
    12    5   35 1
    13    6    7 ar
    14    6   29 1
    15    7    8 ar
    16    7   26 1
    17    8    9 ar
    18    8   36 1
    19    9   10 1
    20   10   11 2
    21   10   12 am
    22   12   13 1
    23   12   37 1
    24   13   17 1
    25   13   14 1
    26   13   38 1
    27   14   15 1
    28   14   39 1
    29   14   40 1
    30   15   41 1
    31   15   42 1
    32   15   59 1
    33   16   17 1
    34   16   43 1
    35   16   44 1
    36   16   59 1
    37   17   45 1
    38   17   46 1
    39   18   19 1
    40   18   47 1
    41   18   48 1
    42   18   59 1
    43   19   20 1
    44   19   25 1
    45   19   21 1
    46   21   22 1
    47   21   49 1
    48   21   50 1
    49   22   23 1
    50   22   51 1
    51   22   52 1
    52   23   24 2
    53   23   53 1
    54   24   25 1
    55   24   54 1
    56   25   55 1
    57   25   56 1
    58   26   27 2
    59   26   28 1
    60   29   57 1
    61   29   58 1
    62   59   60 1
