@<TRIPOS>MOLECULE
DB08811_1
   54    56     0     0     0
SMALL
USER_CHARGES

@<TRIPOS>ATOM
      1 C1          0.4520   -0.7635    1.1307 C.3       1 <0>        -0.1560
      2 C2         -0.0808   -0.0328   -0.1034 C.3       1 <0>        -0.1215
      3 C3          0.7898   -0.3751   -1.3141 C.3       1 <0>        -0.0659
      4 H1          0.3812    0.2070   -2.1401 H         1 <0>         0.0965
      5 C4          0.5132   -1.8262   -1.6395 C.ar      1 <0>        -0.0250
      6 C5         -0.8143   -2.0924   -1.8584 C.ar      1 <0>        -0.1783
      7 C6         -1.2106   -3.3891   -2.1678 C.ar      1 <0>         0.1293
      8 C7         -0.2661   -4.4109   -2.2543 C.ar      1 <0>         0.0923
      9 C8          1.0735   -4.1448   -2.0334 C.ar      1 <0>        -0.1336
     10 C9          1.4698   -2.8452   -1.7240 C.ar      1 <0>        -0.0974
     11 C10         2.9259   -2.7171   -1.5165 C.2       1 <0>         0.2154
     12 N1          3.6196   -1.6440   -1.2157 N.2       1 <0>        -0.2879
     13 N2          3.2948   -0.4251   -1.0125 N.2       1 <0>        -0.3166
     14 C11         2.1639    0.1995   -1.0268 C.2       1 <0>         0.1601
     15 C12         2.2173    1.6747   -0.7238 C.3       1 <0>        -0.1142
     16 C13         3.7060   -3.9619   -1.6682 C.ar      1 <0>        -0.0439
     17 C14         4.2336   -4.3102   -2.9142 C.ar      1 <0>        -0.0883
     18 C15         4.9614   -5.4723   -3.0539 C.ar      1 <0>        -0.1708
     19 C16         5.1718   -6.2991   -1.9591 C.ar      1 <0>         0.1099
     20 C17         4.6480   -5.9579   -0.7133 C.ar      1 <0>         0.1029
     21 C18         3.9231   -4.7910   -0.5647 C.ar      1 <0>        -0.1483
     22 O1          4.8556   -6.7705    0.3573 O.3       1 <0>        -0.3028
     23 C19         4.2900   -6.3590    1.6034 C.3       1 <0>         0.0240
     24 O2          5.8895   -7.4438   -2.1021 O.3       1 <0>        -0.3033
     25 C20         6.3968   -7.7328   -3.4065 C.3       1 <0>         0.0241
     26 O3         -0.6636   -5.6757   -2.5570 O.3       1 <0>        -0.3027
     27 C21         0.3545   -6.6758   -2.6299 C.3       1 <0>         0.0240
     28 O4         -2.5237   -3.6614   -2.3862 O.3       1 <0>        -0.2992
     29 C22        -3.4389   -2.5689   -2.2814 C.3       1 <0>         0.0225
     30 H2          0.3802   -1.8399    0.9749 H         1 <0>         0.0535
     31 H3          1.4941   -0.4887    1.2940 H         1 <0>         0.0534
     32 H4         -0.1387   -0.4824    2.0026 H         1 <0>         0.0614
     33 H5         -1.1078   -0.3440   -0.2947 H         1 <0>         0.0738
     34 H6         -0.0536    1.0427    0.0712 H         1 <0>         0.0783
     35 H7         -1.5463   -1.3012   -1.7908 H         1 <0>         0.1488
     36 H8          1.8050   -4.9366   -2.1001 H         1 <0>         0.1525
     37 H9          2.0264    1.8348    0.3373 H         1 <0>         0.0884
     38 H10         3.2038    2.0624   -0.9780 H         1 <0>         0.0874
     39 H11         1.4604    2.1940   -1.3115 H         1 <0>         0.0805
     40 H12         4.0707   -3.6690   -3.7679 H         1 <0>         0.1300
     41 H13         5.3686   -5.7404   -4.0176 H         1 <0>         0.1417
     42 H14         3.5211   -4.5229    0.4012 H         1 <0>         0.1371
     43 H15         4.7013   -5.3902    1.8869 H         1 <0>         0.0566
     44 H16         3.2076   -6.2787    1.5022 H         1 <0>         0.0544
     45 H17         4.5295   -7.0943    2.3716 H         1 <0>         0.1034
     46 H18         7.0609   -6.9290   -3.7243 H         1 <0>         0.0572
     47 H19         6.9492   -8.6721   -3.3816 H         1 <0>         0.1025
     48 H20         5.5671   -7.8176   -4.1084 H         1 <0>         0.0563
     49 H21         1.0767   -6.4036   -3.3997 H         1 <0>         0.0565
     50 H22         0.8604   -6.7502   -1.6673 H         1 <0>         0.0555
     51 H23        -0.0968   -7.6363   -2.8784 H         1 <0>         0.1048
     52 H24        -3.3900   -2.1491   -1.2767 H         1 <0>         0.0574
     53 H25        -3.1739   -1.8019   -3.0090 H         1 <0>         0.0578
     54 H26        -4.4509   -2.9226   -2.4785 H         1 <0>         0.1052
@<TRIPOS>BOND
     1    1    2 1
     2    1   30 1
     3    1   31 1
     4    1   32 1
     5    2    3 1
     6    2   33 1
     7    2   34 1
     8    3    4 1
     9    3   14 1
    10    3    5 1
    11    5   10 ar
    12    5    6 ar
    13    6    7 ar
    14    6   35 1
    15    7    8 ar
    16    7   28 1
    17    8    9 ar
    18    8   26 1
    19    9   10 ar
    20    9   36 1
    21   10   11 1
    22   11   12 2
    23   11   16 1
    24   12   13 1
    25   13   14 2
    26   14   15 1
    27   15   37 1
    28   15   38 1
    29   15   39 1
    30   16   21 ar
    31   16   17 ar
    32   17   18 ar
    33   17   40 1
    34   18   19 ar
    35   18   41 1
    36   19   20 ar
    37   19   24 1
    38   20   21 ar
    39   20   22 1
    40   21   42 1
    41   22   23 1
    42   23   43 1
    43   23   44 1
    44   23   45 1
    45   24   25 1
    46   25   46 1
    47   25   47 1
    48   25   48 1
    49   26   27 1
    50   27   49 1
    51   27   50 1
    52   27   51 1
    53   28   29 1
    54   29   52 1
    55   29   53 1
    56   29   54 1
