@<TRIPOS>MOLECULE
DB08795_2
   42    44     0     0     0
SMALL
USER_CHARGES

@<TRIPOS>ATOM
      1 C1         -0.6449    0.7790    0.3828 C.3       1 <0>        -0.1148
      2 C2         -0.0865   -0.6086    0.0606 C.3       1 <0>         0.0151
      3 C3          0.9248   -0.5601   -1.1249 C.3       1 <0>         0.0175
      4 H1          1.5144    0.3544   -1.0600 H         1 <0>         0.1039
      5 N1          1.8178   -1.7187   -1.0692 N.am      1 <0>        -0.5044
      6 C4          2.1938   -2.1684    0.2783 C.3       1 <0>         0.1134
      7 H2          3.2538   -2.1311    0.5297 H         1 <0>         0.1500
      8 S1          1.0737   -1.1985    1.3746 S.3       1 <0>        -0.3154
      9 C5          1.6404   -3.5386   -0.0863 C.3       1 <0>         0.0758
     10 H3          0.7386   -3.8115    0.4617 H         1 <0>         0.1491
     11 C6          1.3747   -2.9302   -1.4303 C.2       1 <0>         0.4850
     12 O1          0.9237   -3.3727   -2.4656 O.2       1 <0>        -0.3896
     13 N2          2.6480   -4.6020   -0.1005 N.am      1 <0>        -0.6943
     14 C7          2.2786   -5.8831    0.0968 C.2       1 <0>         0.4999
     15 O2          1.1120   -6.1555    0.2862 O.2       1 <0>        -0.5103
     16 C8          3.3150   -6.9770    0.0822 C.3       1 <0>         0.1357
     17 H4          4.0386   -6.7814   -0.7092 H         1 <0>         0.1076
     18 C9          4.0232   -7.0158    1.4119 C.ar      1 <0>        -0.0754
     19 C10         3.4321   -7.6449    2.4916 C.ar      1 <0>        -0.0738
     20 C11         4.0817   -7.6805    3.7113 C.ar      1 <0>        -0.1216
     21 C12         5.3225   -7.0875    3.8512 C.ar      1 <0>        -0.1084
     22 C13         5.9139   -6.4591    2.7712 C.ar      1 <0>        -0.1200
     23 C14         5.2663   -6.4272    1.5504 C.ar      1 <0>        -0.1031
     24 N3          2.6617   -8.2655   -0.1609 N.2       1 <0>        -0.3792
     25 N4          2.1509   -8.4601   -1.1431 N.1       1 <0>         0.3001
     26 N5          1.6509   -8.6506   -2.1042 N.1       1 <0>        -0.1433
     27 C15         0.1684   -0.5757   -2.4282 C.2       1 <0>         0.4978
     28 O3         -0.7646    0.1901   -2.6008 O.co2     1 <0>        -0.6798
     29 O4          0.4893   -1.3540   -3.3100 O.co2     1 <0>        -0.6424
     30 C16        -1.2089   -1.6166   -0.1947 C.3       1 <0>        -0.1374
     31 H5          0.1778    1.4864    0.4871 H         1 <0>         0.0624
     32 H6         -1.3021    1.1025   -0.4243 H         1 <0>         0.0970
     33 H7         -1.2081    0.7365    1.3150 H         1 <0>         0.0572
     34 H8          3.5810   -4.3842   -0.2520 H         1 <0>         0.4079
     35 H9          2.4627   -8.1083    2.3824 H         1 <0>         0.1324
     36 H10         3.6196   -8.1714    4.5551 H         1 <0>         0.1257
     37 H11         5.8297   -7.1147    4.8043 H         1 <0>         0.1236
     38 H12         6.8832   -5.9955    2.8806 H         1 <0>         0.1268
     39 H13         5.7300   -5.9396    0.7057 H         1 <0>         0.1265
     40 H14        -1.8050   -1.2886   -1.0463 H         1 <0>         0.0921
     41 H15        -0.7774   -2.5945   -0.4083 H         1 <0>         0.0459
     42 H16        -1.8439   -1.6847    0.6886 H         1 <0>         0.0648
@<TRIPOS>BOND
     1    1    2 1
     2    1   31 1
     3    1   32 1
     4    1   33 1
     5    2    8 1
     6    2    3 1
     7    2   30 1
     8    3    4 1
     9    3    5 1
    10    3   27 1
    11    5   11 am
    12    5    6 1
    13    6    7 1
    14    6    8 1
    15    6    9 1
    16    9   10 1
    17    9   11 1
    18    9   13 1
    19   11   12 2
    20   13   14 am
    21   13   34 1
    22   14   15 2
    23   14   16 1
    24   16   17 1
    25   16   18 1
    26   16   24 1
    27   18   23 ar
    28   18   19 ar
    29   19   20 ar
    30   19   35 1
    31   20   21 ar
    32   20   36 1
    33   21   22 ar
    34   21   37 1
    35   22   23 ar
    36   22   38 1
    37   23   39 1
    38   24   25 2
    39   25   26 2
    40   27   28 2
    41   27   29 1
    42   30   40 1
    43   30   41 1
    44   30   42 1
