@<TRIPOS>MOLECULE
DB08798_1
   31    32     0     0     0
SMALL
USER_CHARGES
4-amino-N-(4,5-dimethyloxazol-2-yl)-benzenesulfonamide
@<TRIPOS>ATOM
      1 C1         -0.3389    4.8985    5.5327 C.3       1 <0>        -0.0724
      2 C2         -0.4598    4.3538    4.1328 C.2       1 <0>         0.0093
      3 C3          0.3767    4.6001    3.1141 C.2       1 <0>        -0.0548
      4 O1         -0.0848    3.9192    2.0423 O.3       1 <0>        -0.2077
      5 C4         -1.2001    3.2736    2.4170 C.2       1 <0>         0.4342
      6 N1         -1.4273    3.5321    3.6815 N.2       1 <0>        -0.4893
      7 N2         -1.9757    2.4666    1.6068 N.pl3     1 <0>        -0.9892
      8 S1         -1.5555    2.2368    0.0216 S.o2      1 <0>         2.6864
      9 O2         -1.3063    3.5252   -0.5234 O.2       1 <0>        -0.9326
     10 O3         -2.5194    1.3499   -0.5295 O.2       1 <0>        -0.9347
     11 C5         -0.0167    1.3786    0.0096 C.ar      1 <0>        -0.7375
     12 C6          1.1695    2.0894    0.0021 C.ar      1 <0>         0.0387
     13 C7          2.3774    1.4200   -0.0131 C.ar      1 <0>        -0.2180
     14 C8          2.3998    0.0311   -0.0208 C.ar      1 <0>         0.2754
     15 C9          1.2064   -0.6798   -0.0132 C.ar      1 <0>        -0.2182
     16 C10         0.0021   -0.0041    0.0020 C.ar      1 <0>         0.0330
     17 N3          3.6196   -0.6492   -0.0357 N.pl3     1 <0>        -0.8631
     18 C11         1.6067    5.4697    3.1583 C.3       1 <0>        -0.0653
     19 H1          0.2566    4.2152    6.1382 H         1 <0>         0.0776
     20 H2          0.1464    5.8741    5.5023 H         1 <0>         0.0778
     21 H3         -1.3321    5.0002    5.9701 H         1 <0>         0.0783
     22 H4         -2.7662    2.0348    1.9666 H         1 <0>         0.4527
     23 H5          1.1513    3.1692    0.0078 H         1 <0>         0.1415
     24 H6          3.3034    1.9757   -0.0194 H         1 <0>         0.1326
     25 H7          1.2204   -1.7597   -0.0194 H         1 <0>         0.1335
     26 H8         -0.9261   -0.5561    0.0083 H         1 <0>         0.1422
     27 H9          3.6341   -1.6190   -0.0407 H         1 <0>         0.4047
     28 H10         4.4523   -0.1517   -0.0410 H         1 <0>         0.4046
     29 H11         2.4695    4.8648    3.4370 H         1 <0>         0.0842
     30 H12         1.7747    5.9116    2.1762 H         1 <0>         0.0808
     31 H13         1.4655    6.2617    3.8938 H         1 <0>         0.0953
@<TRIPOS>BOND
     1    1    2 1
     2    1   19 1
     3    1   20 1
     4    1   21 1
     5    2    6 1
     6    2    3 2
     7    3    4 1
     8    3   18 1
     9    4    5 1
    10    5    6 2
    11    5    7 1
    12    7    8 1
    13    7   22 1
    14    8    9 2
    15    8   10 2
    16    8   11 1
    17   11   16 ar
    18   11   12 ar
    19   12   13 ar
    20   12   23 1
    21   13   14 ar
    22   13   24 1
    23   14   15 ar
    24   14   17 1
    25   15   16 ar
    26   15   25 1
    27   16   26 1
    28   17   27 1
    29   17   28 1
    30   18   29 1
    31   18   30 1
    32   18   31 1
