@<TRIPOS>MOLECULE
DB08819_1
66   67    1
SMALL
USER_CHARGES


@<TRIPOS>ATOM
      1 C1         -6.9898    3.5910    1.2146 C.3       1 UNK        -0.1800 
      2 C2         -5.8104    4.3256    0.5662 C.3       1 UNK         0.2200 
      3 C3         -5.7252    5.7924    1.0141 C.3       1 UNK        -0.1800 
      4 O4         -4.6168    3.6438    0.9326 O.3       1 UNK        -0.3300 
      5 C5         -3.5713    3.5793    0.0847 C.2       1 UNK         0.5100 
      6 O6         -3.5126    4.0906   -1.0337 O.2       1 UNK        -0.4300 
      7 C7         -2.3970    2.7896    0.6584 C.3       1 UNK        -0.1200 
      8 C8         -2.7283    1.2993    0.8378 C.3       1 UNK        -0.1200 
      9 C9         -1.5324    0.5020    1.3733 C.3       1 UNK        -0.1200 
     10 C10        -1.8700   -0.9655    1.5662 C.2       1 UNK        -0.1150 
     11 C11        -1.4083   -2.0032    0.8443 C.2       1 UNK        -0.1150 
     12 C12        -0.4697   -1.9366   -0.3482 C.3       1 UNK        -0.1200 
     13 C13         0.9817   -2.3171    0.0201 C.3       1 UNK        -0.0600 
     14 C14         1.2142   -3.7688    0.5124 C.3       1 UNK         0.2050 
     15 O15         0.2492   -4.6847    0.0282 O.3       1 UNK        -0.6830 
     16 C16         2.6013   -4.1858   -0.0137 C.3       1 UNK        -0.1200 
     17 C17         3.2164   -2.9193   -0.6136 C.3       1 UNK         0.2050 
     18 O18         4.1223   -3.2282   -1.6537 O.3       1 UNK        -0.6830 
     19 C19         2.0063   -2.1121   -1.1078 C.3       1 UNK        -0.0600 
     20 C20         2.2636   -0.6414   -1.4223 C.2       1 UNK        -0.1150 
     21 C21         3.4262    0.0245   -1.2910 C.2       1 UNK        -0.1150 
     22 C22         3.6338    1.4925   -1.6176 C.3       1 UNK         0.2400 
     23 F23         4.6437    1.6133   -2.4792 F         1 UNK        -0.1200 
     24 F24         2.5383    2.0202   -2.1673 F         1 UNK        -0.1200 
     25 C25         3.9781    2.2900   -0.3511 C.3       1 UNK         0.1400 
     26 O26         4.1794    3.6554   -0.6940 O.3       1 UNK        -0.2850 
     27 C27         4.4964    4.5424    0.3124 C.ar      1 UNK         0.0850 
     28 C28         4.6371    4.1844    1.6776 C.ar      1 UNK        -0.1150 
     29 C29         4.9640    5.1596    2.6403 C.ar      1 UNK        -0.1150 
     30 C30         5.1539    6.4994    2.2541 C.ar      1 UNK        -0.1150 
     31 C31         5.0164    6.8640    0.9021 C.ar      1 UNK        -0.1150 
     32 C32         4.6897    5.8889   -0.0599 C.ar      1 UNK        -0.1150 
     33 H33         0.4599   -5.5460    0.3552 H         1 UNK         0.4180 
     34 H34         4.4253   -2.4208   -2.0402 H         1 UNK         0.4180 
     35 H35        -7.9368    4.0652    0.9558 H         1 UNK         0.0600 
     36 H36        -7.0360    2.5548    0.8783 H         1 UNK         0.0600 
     37 H37        -6.9044    3.5854    2.3017 H         1 UNK         0.0600 
     38 H38        -5.9478    4.2895   -0.5157 H         1 UNK         0.0300 
     39 H39        -6.6360    6.3332    0.7561 H         1 UNK         0.0600 
     40 H40        -5.5845    5.8695    2.0926 H         1 UNK         0.0600 
     41 H41        -4.8917    6.3036    0.5316 H         1 UNK         0.0600 
     42 H42        -2.1143    3.2294    1.6151 H         1 UNK         0.0600 
     43 H43        -1.5408    2.9033   -0.0072 H         1 UNK         0.0600 
     44 H44        -3.0433    0.8771   -0.1179 H         1 UNK         0.0600 
     45 H45        -3.5724    1.1861    1.5199 H         1 UNK         0.0600 
     46 H46        -1.2246    0.9024    2.3398 H         1 UNK         0.0600 
     47 H47        -0.6744    0.6248    0.7140 H         1 UNK         0.0600 
     48 H48        -2.5522   -1.1751    2.3773 H         1 UNK         0.1150 
     49 H49        -1.7247   -2.9976    1.1240 H         1 UNK         0.1150 
     50 H50        -0.4988   -0.9381   -0.7792 H         1 UNK         0.0600 
     51 H51        -0.8544   -2.5924   -1.1296 H         1 UNK         0.0600 
     52 H52         1.2882   -1.6592    0.8361 H         1 UNK         0.0600 
     53 H53         1.1908   -3.7960    1.6026 H         1 UNK         0.0600 
     54 H54         3.2299   -4.6118    0.7690 H         1 UNK         0.0600 
     55 H55         2.5013   -4.9453   -0.7919 H         1 UNK         0.0600 
     56 H56         3.7384   -2.3791    0.1774 H         1 UNK         0.0600 
     57 H57         1.6207   -2.5796   -2.0158 H         1 UNK         0.0600 
     58 H58         1.4032   -0.1026   -1.7899 H         1 UNK         0.1150 
     59 H59         4.3058   -0.4851   -0.9287 H         1 UNK         0.1150 
     60 H60         3.1631    2.2017    0.3696 H         1 UNK         0.0300 
     61 H61         4.8812    1.8827    0.1069 H         1 UNK         0.0300 
     62 H62         4.4994    3.1679    2.0131 H         1 UNK         0.1150 
     63 H63         5.0692    4.8783    3.6778 H         1 UNK         0.1150 
     64 H64         5.4046    7.2459    2.9934 H         1 UNK         0.1150 
     65 H65         5.1615    7.8914    0.6021 H         1 UNK         0.1150 
     66 H66         4.5859    6.1769   -1.0958 H         1 UNK         0.1150 
@<TRIPOS>BOND
     1    1    2 1    
     2    1   35 1    
     3    1   36 1    
     4    1   37 1    
     5    2    3 1    
     6    2    4 1    
     7    2   38 1    
     8    3   39 1    
     9    3   40 1    
    10    3   41 1    
    11    4    5 1    
    12    5    6 2    
    13    5    7 1    
    14    7    8 1    
    15    7   42 1    
    16    7   43 1    
    17    8    9 1    
    18    8   44 1    
    19    8   45 1    
    20    9   10 1    
    21    9   46 1    
    22    9   47 1    
    23   10   11 2    
    24   10   48 1    
    25   11   12 1    
    26   11   49 1    
    27   12   13 1    
    28   12   50 1    
    29   12   51 1    
    30   13   19 1    
    31   13   14 1    
    32   13   52 1    
    33   14   15 1    
    34   14   16 1    
    35   14   53 1    
    36   15   33 1    
    37   16   17 1    
    38   16   54 1    
    39   16   55 1    
    40   17   18 1    
    41   17   19 1    
    42   17   56 1    
    43   18   34 1    
    44   19   20 1    
    45   19   57 1    
    46   20   21 2    
    47   20   58 1    
    48   21   22 1    
    49   21   59 1    
    50   22   23 1    
    51   22   24 1    
    52   22   25 1    
    53   25   26 1    
    54   25   60 1    
    55   25   61 1    
    56   26   27 1    
    57   27   32 ar   
    58   27   28 ar   
    59   28   29 ar   
    60   28   62 1    
    61   29   30 ar   
    62   29   63 1    
    63   30   31 ar   
    64   30   64 1    
    65   31   32 ar   
    66   31   65 1    
    67   32   66 1    
@<TRIPOS>SUBSTRUCTURE
     1 UNK         1 GROUP             0       ****    0 ROOT    
