@<TRIPOS>MOLECULE
DB08816_1
64   68    1
SMALL
USER_CHARGES


@<TRIPOS>ATOM
      1 C1          3.1070   -3.9353   -1.7490 C.ar      1 UNK        -0.1150 
      2 C2          2.3274   -5.0291   -2.1724 C.ar      1 UNK        -0.1150 
      3 C3          2.3032   -6.2129   -1.4122 C.ar      1 UNK         0.1300 
      4 F4          1.5531   -7.2644   -1.8194 F         1 UNK        -0.1300 
      5 C5          3.0596   -6.2995   -0.2283 C.ar      1 UNK         0.1300 
      6 F6          3.0389   -7.4354    0.5088 F         1 UNK        -0.1300 
      7 C7          3.8381   -5.2036    0.1922 C.ar      1 UNK        -0.1150 
      8 C8          3.8719   -4.0093   -0.5640 C.ar      1 UNK        -0.1150 
      9 C9          4.6820   -2.8191   -0.1276 C.3       1 UNK         0.0550 
     10 C10         6.0088   -2.9583    0.5877 C.3       1 UNK        -0.1200 
     11 C11         4.7977   -2.4440    1.3331 C.3       1 UNK         0.0625 
     12 N12         4.7501   -1.0451    1.7224 N.pl3     1 UNK        -0.7025 
     13 C13         3.5464   -0.3394    1.5976 C.ar      1 UNK         0.6009 
     14 N14         3.6534    1.0107    1.5556 N.ar      1 UNK        -0.7052 
     15 C15         2.5481    1.7558    1.4193 C.ar      1 UNK         0.8658 
     16 N16         1.2745    1.3671    1.3161 N.ar      1 UNK        -0.7822 
     17 S17         2.7890    3.5180    1.4047 S.3       1 UNK        -0.3200 
     18 C18         4.1499    3.6695    0.2130 C.3       1 UNK         0.0475 
     19 C19         4.4381    5.1375   -0.1235 C.3       1 UNK        -0.1200 
     20 C20         5.5746    5.2953   -1.1395 C.3       1 UNK        -0.1800 
     21 C21         2.2449   -0.9087    1.5041 C.ar      1 UNK         0.0871 
     22 C22         1.1804    0.0075    1.3647 C.ar      1 UNK         0.6289 
     23 N23         1.7434   -2.2020    1.5177 N.2       1 UNK        -0.3186 
     24 N24         0.4521   -2.1388    1.3800 N.2       1 UNK        -0.1386 
     25 N25         0.0816   -0.8296    1.2881 N.pl3     1 UNK        -0.0081 
     26 C26        -1.3267   -0.5018    1.1043 C.3       1 UNK         0.0625 
     27 C27        -1.6144    0.1796   -0.2482 C.3       1 UNK        -0.1200 
     28 C28        -2.5335    1.3843    0.0463 C.3       1 UNK         0.1700 
     29 C29        -3.0439    1.1699    1.4790 C.3       1 UNK         0.2050 
     30 O30        -4.1964    0.3479    1.4374 O.3       1 UNK        -0.6830 
     31 C31        -1.8814    0.4534    2.1726 C.3       1 UNK         0.2050 
     32 O32        -2.2574   -0.1983    3.3711 O.3       1 UNK        -0.6830 
     33 O33        -1.7697    2.5832    0.0340 O.3       1 UNK        -0.4000 
     34 C34        -1.6026    3.1414   -1.2614 C.3       1 UNK         0.1400 
     35 C35        -0.5497    4.2547   -1.1988 C.3       1 UNK         0.1450 
     36 O36         0.7400    3.7124   -1.3899 O.3       1 UNK        -0.6830 
     37 H37         5.6114   -0.5183    1.7125 H         1 UNK         0.3800 
     38 H38        -4.3603    0.0274    2.3116 H         1 UNK         0.4180 
     39 H39        -2.5115    0.4569    4.0033 H         1 UNK         0.4180 
     40 H40         1.3753    4.4044   -1.2874 H         1 UNK         0.4180 
     41 H41         3.1115   -3.0318   -2.3410 H         1 UNK         0.1150 
     42 H42         1.7465   -4.9589   -3.0801 H         1 UNK         0.1150 
     43 H43         4.4066   -5.2888    1.1062 H         1 UNK         0.1150 
     44 H44         4.5985   -2.0043   -0.8450 H         1 UNK         0.0600 
     45 H45         6.3606   -3.9593    0.8278 H         1 UNK         0.0600 
     46 H46         6.7885   -2.2378    0.3481 H         1 UNK         0.0600 
     47 H47         4.3602   -3.0941    2.0884 H         1 UNK         0.0600 
     48 H48         5.0420    3.1977    0.6259 H         1 UNK         0.0600 
     49 H49         3.8829    3.1222   -0.6918 H         1 UNK         0.0600 
     50 H50         3.5357    5.6057   -0.5182 H         1 UNK         0.0600 
     51 H51         4.6930    5.6780    0.7888 H         1 UNK         0.0600 
     52 H52         5.7564    6.3477   -1.3585 H         1 UNK         0.0600 
     53 H53         6.5038    4.8692   -0.7602 H         1 UNK         0.0600 
     54 H54         5.3351    4.7965   -2.0790 H         1 UNK         0.0600 
     55 H55        -1.9071   -1.4265    1.1378 H         1 UNK         0.0600 
     56 H56        -0.7019    0.4905   -0.7581 H         1 UNK         0.0600 
     57 H57        -2.1174   -0.5252   -0.9110 H         1 UNK         0.0600 
     58 H58        -3.3625    1.4604   -0.6606 H         1 UNK         0.0300 
     59 H59        -3.3026    2.1074    1.9729 H         1 UNK         0.0600 
     60 H60        -1.1358    1.2056    2.4291 H         1 UNK         0.0600 
     61 H61        -1.3290    2.3916   -2.0057 H         1 UNK         0.0300 
     62 H62        -2.5604    3.5618   -1.5707 H         1 UNK         0.0300 
     63 H63        -0.7249    4.9761   -1.9973 H         1 UNK         0.0600 
     64 H64        -0.6011    4.7975   -0.2543 H         1 UNK         0.0600 
@<TRIPOS>BOND
     1    1    8 ar   
     2    1    2 ar   
     3    1   41 1    
     4    2    3 ar   
     5    2   42 1    
     6    3    4 1    
     7    3    5 ar   
     8    5    6 1    
     9    5    7 ar   
    10    7    8 ar   
    11    7   43 1    
    12    8    9 1    
    13    9   11 1    
    14    9   10 1    
    15    9   44 1    
    16   10   11 1    
    17   10   45 1    
    18   10   46 1    
    19   11   12 1    
    20   11   47 1    
    21   12   13 1    
    22   12   37 1    
    23   13   14 ar   
    24   13   21 ar   
    25   14   15 ar   
    26   15   16 ar   
    27   15   17 1    
    28   16   22 ar   
    29   17   18 1    
    30   18   19 1    
    31   18   48 1    
    32   18   49 1    
    33   19   20 1    
    34   19   50 1    
    35   19   51 1    
    36   20   52 1    
    37   20   53 1    
    38   20   54 1    
    39   21   22 ar   
    40   21   23 ar   
    41   22   25 ar   
    42   23   24 ar   
    43   24   25 ar   
    44   25   26 1    
    45   26   31 1    
    46   26   27 1    
    47   26   55 1    
    48   27   28 1    
    49   27   56 1    
    50   27   57 1    
    51   28   29 1    
    52   28   33 1    
    53   28   58 1    
    54   29   30 1    
    55   29   31 1    
    56   29   59 1    
    57   30   38 1    
    58   31   32 1    
    59   31   60 1    
    60   32   39 1    
    61   33   34 1    
    62   34   35 1    
    63   34   61 1    
    64   34   62 1    
    65   35   36 1    
    66   35   63 1    
    67   35   64 1    
    68   36   40 1    
@<TRIPOS>SUBSTRUCTURE
     1 UNK         1 GROUP             0       ****    0 ROOT    
