@<TRIPOS>MOLECULE
DB08795_1
   42    44     0     0     0
SMALL
USER_CHARGES
6-(2-azido-2-phenyl-acetyl)amino-3,3-dimethyl-7-oxo-4-thia-1-azabicyclo[3.2.0]heptane-2-carboxylic acid
@<TRIPOS>ATOM
      1 C1          1.1837    5.7887   -0.4164 C.3       1 <0>        -0.1255
      2 C2          1.7509    4.4583    0.0829 C.3       1 <0>         0.0365
      3 C3          0.8681    3.8464    1.2055 C.3       1 <0>         0.0454
      4 H1         -0.1747    4.1008    1.0160 H         1 <0>         0.0749
      5 N1          1.0006    2.3878    1.2672 N.am      1 <0>        -0.5061
      6 C4          1.3792    1.7208   -0.0019 C.3       1 <0>         0.1103
      7 H2          2.2202    1.0287    0.0411 H         1 <0>         0.1593
      8 S1          1.5579    3.1208   -1.1791 S.3       1 <0>        -0.2991
      9 C5         -0.0127    1.0858    0.0080 C.3       1 <0>         0.0846
     10 H3          0.0021   -0.0041    0.0020 H         1 <0>         0.1395
     11 C6         -0.1687    1.6859    1.3897 C.2       1 <0>         0.4944
     12 O1         -1.0036    1.5845    2.2636 O.2       1 <0>        -0.4257
     13 N2         -0.9256    1.6501   -0.9892 N.am      1 <0>        -0.6877
     14 C7         -1.9785    0.9294   -1.4232 C.2       1 <0>         0.5011
     15 O2         -2.1703   -0.1864   -0.9881 O.2       1 <0>        -0.5127
     16 C8         -2.9176    1.5098   -2.4490 C.3       1 <0>         0.1315
     17 H4         -3.0893    2.5636   -2.2293 H         1 <0>         0.1094
     18 C9         -2.3083    1.3755   -3.8207 C.ar      1 <0>        -0.0776
     19 C10        -2.3711    0.1674   -4.4896 C.ar      1 <0>        -0.0752
     20 C11        -1.8160    0.0454   -5.7498 C.ar      1 <0>        -0.1232
     21 C12        -1.1897    1.1288   -6.3370 C.ar      1 <0>        -0.1072
     22 C13        -1.1227    2.3356   -5.6661 C.ar      1 <0>        -0.1175
     23 C14        -1.6816    2.4588   -4.4078 C.ar      1 <0>        -0.0968
     24 N3         -4.1920    0.7885   -2.4079 N.2       1 <0>        -0.3522
     25 N4         -4.8391    0.8425   -1.4904 N.1       1 <0>         0.2786
     26 N5         -5.4861    0.8965   -0.5730 N.1       1 <0>        -0.1488
     27 C15         1.2810    4.4338    2.5304 C.2       1 <0>         0.4813
     28 O3          1.9489    3.7824    3.2982 O.co2     1 <0>        -0.6002
     29 C16         3.2067    4.6060    0.5297 C.3       1 <0>        -0.1296
     30 H5          1.1381    6.4974    0.4105 H         1 <0>         0.0992
     31 H6          1.8275    6.1866   -1.2008 H         1 <0>         0.0666
     32 H7          0.1816    5.6300   -0.8145 H         1 <0>         0.0619
     33 H8         -0.7722    2.5425   -1.3372 H         1 <0>         0.4161
     34 H9         -2.8568   -0.6802   -4.0291 H         1 <0>         0.1313
     35 H10        -1.8686   -0.8974   -6.2740 H         1 <0>         0.1252
     36 H11        -0.7531    1.0325   -7.3201 H         1 <0>         0.1236
     37 H12        -0.6334    3.1820   -6.1249 H         1 <0>         0.1275
     38 H13        -1.6289    3.4015   -3.8835 H         1 <0>         0.1272
     39 H14         3.6086    3.6263    0.7882 H         1 <0>         0.0654
     40 H15         3.7937    5.0371   -0.2812 H         1 <0>         0.0629
     41 H16         3.2549    5.2598    1.4005 H         1 <0>         0.0839
     42 O4          0.9068    5.6807    2.8576 O.co2     1 <0>        -0.7524
@<TRIPOS>BOND
     1    1    2 1
     2    1   30 1
     3    1   31 1
     4    1   32 1
     5    2    8 1
     6    2    3 1
     7    2   29 1
     8    3    4 1
     9    3    5 1
    10    3   27 1
    11    5   11 am
    12    5    6 1
    13    6    7 1
    14    6    8 1
    15    6    9 1
    16    9   10 1
    17    9   11 1
    18    9   13 1
    19   11   12 2
    20   13   14 am
    21   13   33 1
    22   14   15 2
    23   14   16 1
    24   16   17 1
    25   16   18 1
    26   16   24 1
    27   18   23 ar
    28   18   19 ar
    29   19   20 ar
    30   19   34 1
    31   20   21 ar
    32   20   35 1
    33   21   22 ar
    34   21   36 1
    35   22   23 ar
    36   22   37 1
    37   23   38 1
    38   24   25 2
    39   25   26 2
    40   27   28 2
    41   27   42 1
    42   29   39 1
    43   29   40 1
    44   29   41 1
