@<TRIPOS>MOLECULE
DB08801_1
   47    49     0     0     0
SMALL
USER_CHARGES

@<TRIPOS>ATOM
      1 C1         -0.6599    1.3285   -0.3543 C.3       1 <0>        -0.1538
      2 C2          0.0021   -0.0041    0.0020 C.3       1 <0>         0.0057
      3 H1          0.6290    0.1261    0.8841 H         1 <0>         0.0920
      4 C3          0.8509   -0.4682   -1.1535 C.ar      1 <0>         0.1298
      5 C4          0.7050    0.1291   -2.3915 C.ar      1 <0>        -0.1712
      6 C5          1.4907   -0.3052   -3.4478 C.ar      1 <0>        -0.0693
      7 C6          2.3978   -1.3287   -3.2185 C.ar      1 <0>        -0.1691
      8 C7          2.4878   -1.8778   -1.9536 C.ar      1 <0>         0.1037
      9 N1          1.7279   -1.4356   -0.9706 N.ar      1 <0>        -0.4825
     10 C8         -1.0615   -1.0324    0.2889 C.2       1 <0>        -0.0263
     11 C9         -1.1820   -1.6849    1.4318 C.2       1 <0>        -0.1528
     12 C10        -2.3641   -2.6194    1.3216 C.3       1 <0>        -0.0499
     13 C11        -2.9151   -2.4092   -0.0677 C.ar      1 <0>        -0.0966
     14 C12        -2.1088   -1.4387   -0.6664 C.ar      1 <0>        -0.0788
     15 C13        -2.3881   -1.0327   -1.9734 C.ar      1 <0>        -0.0913
     16 C14        -3.4524   -1.5879   -2.6532 C.ar      1 <0>        -0.1188
     17 C15        -4.2459   -2.5456   -2.0479 C.ar      1 <0>        -0.1027
     18 C16        -3.9709   -2.9601   -0.7551 C.ar      1 <0>        -0.1013
     19 C17        -0.2926   -1.5248    2.6378 C.3       1 <0>        -0.0831
     20 C18        -0.9227   -0.5224    3.6068 C.3       1 <0>        -0.0096
     21 N2         -0.0557   -0.3664    4.7824 N.4       1 <0>        -0.3879
     22 C19        -0.5987    0.6826    5.6556 C.3       1 <0>        -0.0474
     23 C20         0.0027   -1.6357    5.5196 C.3       1 <0>        -0.0535
     24 H2          0.1094    2.0723   -0.5618 H         1 <0>         0.0696
     25 H3         -1.2868    1.1984   -1.2364 H         1 <0>         0.0695
     26 H4         -1.2738    1.6642    0.4814 H         1 <0>         0.0647
     27 H5         -0.0122    0.9239   -2.5341 H         1 <0>         0.1380
     28 H6          1.3982    0.1426   -4.4262 H         1 <0>         0.1383
     29 H7          3.0257   -1.6923   -4.0184 H         1 <0>         0.1387
     30 H8          3.1918   -2.6752   -1.7668 H         1 <0>         0.1580
     31 H9         -2.0409   -3.6528    1.4469 H         1 <0>         0.1017
     32 H10        -3.1165   -2.3656    2.0683 H         1 <0>         0.0972
     33 H11        -1.7721   -0.2851   -2.4508 H         1 <0>         0.1221
     34 H12        -3.6674   -1.2728   -3.6636 H         1 <0>         0.1289
     35 H13        -5.0774   -2.9757   -2.5865 H         1 <0>         0.1309
     36 H14        -4.5919   -3.7072   -0.2835 H         1 <0>         0.1262
     37 H15        -0.1778   -2.4880    3.1350 H         1 <0>         0.0981
     38 H16         0.6850   -1.1600    2.3224 H         1 <0>         0.0991
     39 H17        -1.0374    0.4407    3.1096 H         1 <0>         0.1313
     40 H18        -1.9002   -0.8872    3.9222 H         1 <0>         0.1321
     41 H19        -1.6017    0.4034    5.9784 H         1 <0>         0.1220
     42 H20         0.0446    0.7983    6.5279 H         1 <0>         0.1249
     43 H21        -0.6421    1.6244    5.1085 H         1 <0>         0.1232
     44 H22         0.4057   -2.4140    4.8717 H         1 <0>         0.1253
     45 H23         0.6461   -1.5199    6.3919 H         1 <0>         0.1248
     46 H24        -1.0003   -1.9148    5.8424 H         1 <0>         0.1228
     47 H25         0.8728   -0.1080    4.4836 H         1 <0>         0.4272
@<TRIPOS>BOND
     1    1    2 1
     2    1   24 1
     3    1   25 1
     4    1   26 1
     5    2    3 1
     6    2    4 1
     7    2   10 1
     8    4    9 ar
     9    4    5 ar
    10    5    6 ar
    11    5   27 1
    12    6    7 ar
    13    6   28 1
    14    7    8 ar
    15    7   29 1
    16    8    9 ar
    17    8   30 1
    18   10   14 1
    19   10   11 2
    20   11   12 1
    21   11   19 1
    22   12   13 1
    23   12   31 1
    24   12   32 1
    25   13   18 ar
    26   13   14 ar
    27   14   15 ar
    28   15   16 ar
    29   15   33 1
    30   16   17 ar
    31   16   34 1
    32   17   18 ar
    33   17   35 1
    34   18   36 1
    35   19   20 1
    36   19   37 1
    37   19   38 1
    38   20   21 1
    39   20   39 1
    40   20   40 1
    41   21   22 1
    42   21   23 1
    43   21   47 1
    44   22   41 1
    45   22   42 1
    46   22   43 1
    47   23   44 1
    48   23   45 1
    49   23   46 1
