@<TRIPOS>MOLECULE
DB08792_1
   32    33     0     0     0
SMALL
USER_CHARGES
[4-[(2,2-dichloroacetyl)-methyl-amino]phenyl] furan-2-carboxylate
@<TRIPOS>ATOM
      1 C1          3.8509   -1.6546    0.9721 C.3       1 <0>         0.0667
      2 N1          3.6566   -0.6635   -0.0891 N.am      1 <0>        -0.5594
      3 C2          2.4554    0.0526   -0.1672 C.ar      1 <0>         0.1414
      4 C3          1.2477   -0.6255   -0.2672 C.ar      1 <0>        -0.1038
      5 C4          0.0639    0.0809   -0.3436 C.ar      1 <0>        -0.1035
      6 C5          0.0808    1.4681   -0.3205 C.ar      1 <0>         0.0805
      7 C6          1.2871    2.1462   -0.2206 C.ar      1 <0>        -0.0984
      8 C7          2.4716    1.4409   -0.1441 C.ar      1 <0>        -0.0879
      9 O1         -1.0849    2.1633   -0.4015 O.3       1 <0>        -0.2789
     10 C8         -1.9385    2.0506    0.6369 C.2       1 <0>         0.5514
     11 O2         -1.6907    1.2829    1.5473 O.2       1 <0>        -0.4670
     12 C9         -3.1636    2.8526    0.6681 C.2       1 <0>        -0.0726
     13 C10        -4.1093    2.8362    1.6542 C.2       1 <0>        -0.0954
     14 C11        -5.1020    3.7530    1.2763 C.2       1 <0>        -0.2288
     15 C12        -4.7244    4.2825    0.0914 C.2       1 <0>         0.0166
     16 O3         -3.5536    3.7415   -0.2692 O.3       1 <0>        -0.1502
     17 C13         4.6337   -0.4407   -0.9903 C.2       1 <0>         0.5108
     18 O4          4.5174    0.4525   -1.8026 O.2       1 <0>        -0.4753
     19 C14         5.8707   -1.3015   -0.9888 C.3       1 <0>         0.0283
     20 Cl1         5.3960   -3.0361   -1.1187 Cl        1 <0>        -0.1002
     21 Cl2         6.9138   -0.8572   -2.3907 Cl        1 <0>        -0.0768
     22 H1          3.5044   -2.6288    0.6273 H         1 <0>         0.0753
     23 H2          4.9097   -1.7140    1.2244 H         1 <0>         0.0784
     24 H3          3.2833   -1.3584    1.8542 H         1 <0>         0.0869
     25 H4          1.2344   -1.7053   -0.2848 H         1 <0>         0.1373
     26 H5         -0.8755   -0.4464   -0.4211 H         1 <0>         0.1362
     27 H6          1.2996    3.2260   -0.2027 H         1 <0>         0.1413
     28 H7          3.4105    1.9689   -0.0660 H         1 <0>         0.1375
     29 H8         -4.0956    2.2340    2.5507 H         1 <0>         0.1670
     30 H9         -5.9993    3.9906    1.8283 H         1 <0>         0.1645
     31 H10        -5.2744    5.0232   -0.4702 H         1 <0>         0.2178
     32 H11         6.4217   -1.1441   -0.0616 H         1 <0>         0.1604
@<TRIPOS>BOND
     1    1    2 1
     2    1   22 1
     3    1   23 1
     4    1   24 1
     5    2    3 1
     6    2   17 am
     7    3    8 ar
     8    3    4 ar
     9    4    5 ar
    10    4   25 1
    11    5    6 ar
    12    5   26 1
    13    6    7 ar
    14    6    9 1
    15    7    8 ar
    16    7   27 1
    17    8   28 1
    18    9   10 1
    19   10   11 2
    20   10   12 1
    21   12   16 1
    22   12   13 2
    23   13   14 1
    24   13   29 1
    25   14   15 2
    26   14   30 1
    27   15   16 1
    28   15   31 1
    29   17   18 2
    30   17   19 1
    31   19   20 1
    32   19   21 1
    33   19   32 1
