@<TRIPOS>MOLECULE
DB08795_4
   42    44     0     0     0
SMALL
USER_CHARGES

@<TRIPOS>ATOM
      1 C1          0.4886    0.9733   -0.8506 C.3       1 <0>        -0.1152
      2 C2          0.2476   -0.4288   -0.2877 C.3       1 <0>         0.0113
      3 C3         -1.2031   -0.5863    0.2609 C.3       1 <0>         0.0217
      4 H1         -1.5121    0.3435    0.7384 H         1 <0>         0.1044
      5 N1         -1.2534   -1.6746    1.2388 N.am      1 <0>        -0.5115
      6 C4         -0.0625   -1.8240    2.0866 C.3       1 <0>         0.1136
      7 H2         -0.2053   -1.6962    3.1596 H         1 <0>         0.1600
      8 S1          1.1610   -0.6929    1.2987 S.3       1 <0>        -0.3151
      9 C5          0.0398   -3.2597    1.5916 C.3       1 <0>         0.0703
     10 H3         -0.0903   -4.0076    2.3738 H         1 <0>         0.1382
     11 C6         -1.2147   -2.9501    0.8316 C.2       1 <0>         0.4869
     12 O1         -1.9321   -3.6121    0.1118 O.2       1 <0>        -0.3852
     13 N2          1.2058   -3.5139    0.7419 N.am      1 <0>        -0.6887
     14 C7          1.6286   -4.7773    0.5382 C.2       1 <0>         0.4980
     15 O2          1.0438   -5.7038    1.0583 O.2       1 <0>        -0.5138
     16 C8          2.8281   -5.0388   -0.3359 C.3       1 <0>         0.1349
     17 H4          2.7991   -4.3756   -1.2004 H         1 <0>         0.1049
     18 C9          4.0880   -4.7840    0.4507 C.ar      1 <0>        -0.0744
     19 C10         4.5642   -5.7446    1.3232 C.ar      1 <0>        -0.0746
     20 C11         5.7199   -5.5109    2.0448 C.ar      1 <0>        -0.1234
     21 C12         6.3996   -4.3167    1.8935 C.ar      1 <0>        -0.1089
     22 C13         5.9238   -3.3564    1.0204 C.ar      1 <0>        -0.1182
     23 C14         4.7705   -3.5919    0.2956 C.ar      1 <0>        -0.0985
     24 N3          2.8082   -6.4320   -0.7884 N.2       1 <0>        -0.3785
     25 N4          1.9853   -6.7917   -1.4642 N.1       1 <0>         0.2997
     26 N5          1.1800   -7.1438   -2.1257 N.1       1 <0>        -0.1428
     27 C15        -2.1379   -0.8971   -0.8795 C.2       1 <0>         0.4964
     28 O3         -2.9199   -1.8282   -0.7903 O.co2     1 <0>        -0.6400
     29 O4         -2.1122   -0.2174   -1.8914 O.co2     1 <0>        -0.6805
     30 C16         0.5828   -1.5092   -1.3179 C.3       1 <0>        -0.1518
     31 H5          1.5498    1.1017   -1.0641 H         1 <0>         0.0578
     32 H6         -0.0847    1.0996   -1.7690 H         1 <0>         0.0976
     33 H7          0.1724    1.7175   -0.1196 H         1 <0>         0.0641
     34 H8          1.6735   -2.7729    0.3259 H         1 <0>         0.4148
     35 H9          4.0332   -6.6776    1.4414 H         1 <0>         0.1320
     36 H10         6.0916   -6.2611    2.7269 H         1 <0>         0.1249
     37 H11         7.3021   -4.1338    2.4578 H         1 <0>         0.1231
     38 H12         6.4547   -2.4233    0.9024 H         1 <0>         0.1269
     39 H13         4.4008   -2.8432   -0.3894 H         1 <0>         0.1258
     40 H14         1.6575   -1.5171   -1.4996 H         1 <0>         0.0612
     41 H15         0.2713   -2.4823   -0.9384 H         1 <0>         0.0563
     42 H16         0.0583   -1.2978   -2.2498 H         1 <0>         0.0962
@<TRIPOS>BOND
     1    1    2 1
     2    1   31 1
     3    1   32 1
     4    1   33 1
     5    2    8 1
     6    2    3 1
     7    2   30 1
     8    3    4 1
     9    3    5 1
    10    3   27 1
    11    5   11 am
    12    5    6 1
    13    6    7 1
    14    6    8 1
    15    6    9 1
    16    9   10 1
    17    9   11 1
    18    9   13 1
    19   11   12 2
    20   13   14 am
    21   13   34 1
    22   14   15 2
    23   14   16 1
    24   16   17 1
    25   16   18 1
    26   16   24 1
    27   18   23 ar
    28   18   19 ar
    29   19   20 ar
    30   19   35 1
    31   20   21 ar
    32   20   36 1
    33   21   22 ar
    34   21   37 1
    35   22   23 ar
    36   22   38 1
    37   23   39 1
    38   24   25 2
    39   25   26 2
    40   27   28 2
    41   27   29 1
    42   30   40 1
    43   30   41 1
    44   30   42 1
