@<TRIPOS>MOLECULE
DB08806_1
   54    55     0     0     0
SMALL
USER_CHARGES

@<TRIPOS>ATOM
      1 C1         -0.0184    1.5028    0.0103 C.3       1 <0>        -0.1461
      2 C2          0.0021   -0.0041    0.0020 C.2       1 <0>         0.4635
      3 O1          0.0203   -0.6138    1.0450 O.2       1 <0>        -0.5106
      4 O2          0.0001   -0.6689   -1.1641 O.3       1 <0>        -0.3312
      5 C3          0.0201   -2.0962   -1.0971 C.3       1 <0>         0.0465
      6 C4          0.0147   -2.6647   -2.4928 C.2       1 <0>         0.5180
      7 O3         -0.0045   -1.9208   -3.4505 O.2       1 <0>        -0.5102
      8 N1          0.0311   -3.9997   -2.6767 N.am      1 <0>        -0.7294
      9 C5          0.0258   -4.5523   -4.0335 C.3       1 <0>         0.1244
     10 C6          0.0472   -6.0805   -3.9618 C.3       1 <0>        -0.1326
     11 C7          0.0417   -6.6576   -5.3788 C.3       1 <0>         0.0607
     12 O4          0.0617   -8.0849   -5.3118 O.3       1 <0>        -0.3088
     13 C8          0.0597   -8.7580   -6.4924 C.ar      1 <0>         0.1428
     14 C9          0.0446   -8.0590   -7.6909 C.ar      1 <0>        -0.1787
     15 C10         0.0431   -8.7454   -8.8895 C.ar      1 <0>        -0.0694
     16 C11         0.0566  -10.1282   -8.8957 C.ar      1 <0>        -0.1377
     17 C12         0.0711  -10.8270   -7.7030 C.ar      1 <0>        -0.1188
     18 C13         0.0785  -10.1450   -6.5014 C.ar      1 <0>        -0.1319
     19 C14         0.0853  -12.3339   -7.7134 C.3       1 <0>         0.0446
     20 N2          1.4748  -12.8105   -7.7261 N.4       1 <0>        -0.3814
     21 C15         2.1202  -12.3991   -8.9785 C.3       1 <0>        -0.0138
     22 C16         3.5905  -12.8225   -8.9621 C.3       1 <0>        -0.1449
     23 C17         3.6762  -14.3447   -8.8180 C.3       1 <0>        -0.1392
     24 C18         2.9356  -14.7697   -7.5467 C.3       1 <0>        -0.1462
     25 C19         1.4895  -14.2741   -7.6156 C.3       1 <0>        -0.0072
     26 H1          1.0042    1.8801    0.0026 H         1 <0>         0.1091
     27 H2         -0.5455    1.8639   -0.8728 H         1 <0>         0.0979
     28 H3         -0.5286    1.8543    0.9071 H         1 <0>         0.1076
     29 H4          0.9196   -2.4228   -0.5753 H         1 <0>         0.1014
     30 H5         -0.8601   -2.4471   -0.5584 H         1 <0>         0.1017
     31 H6          0.0464   -4.5947   -1.9108 H         1 <0>         0.4058
     32 H7         -0.8737   -4.2257   -4.5553 H         1 <0>         0.0759
     33 H8          0.9060   -4.2014   -4.5722 H         1 <0>         0.0755
     34 H9          0.9467   -6.4071   -3.4400 H         1 <0>         0.0857
     35 H10        -0.8330   -6.4314   -3.4231 H         1 <0>         0.0865
     36 H11        -0.8578   -6.3310   -5.9006 H         1 <0>         0.0737
     37 H12         0.9219   -6.3068   -5.9175 H         1 <0>         0.0729
     38 H13         0.0338   -6.9791   -7.6866 H         1 <0>         0.1408
     39 H14         0.0310   -8.2018   -9.8226 H         1 <0>         0.1398
     40 H15         0.0553  -10.6631   -9.8339 H         1 <0>         0.1333
     41 H16         0.0944  -10.6913   -5.5699 H         1 <0>         0.1393
     42 H17        -0.4191  -12.7082   -6.8226 H         1 <0>         0.1386
     43 H18        -0.4311  -12.6960   -8.6024 H         1 <0>         0.1380
     44 H19         1.6153  -12.8736   -9.8199 H         1 <0>         0.1280
     45 H20         2.0556  -11.3158   -9.0812 H         1 <0>         0.1316
     46 H21         4.0675  -12.5177   -9.8936 H         1 <0>         0.1111
     47 H22         4.0965  -12.3482   -8.1212 H         1 <0>         0.0863
     48 H23         3.2152  -14.8193   -9.6842 H         1 <0>         0.0818
     49 H24         4.7214  -14.6460   -8.7489 H         1 <0>         0.0937
     50 H25         2.9444  -15.8567   -7.4665 H         1 <0>         0.1124
     51 H26         3.4280  -14.3358   -6.6764 H         1 <0>         0.0872
     52 H27         0.9593  -14.5751   -6.7120 H         1 <0>         0.1305
     53 H28         0.9980  -14.7087   -8.4860 H         1 <0>         0.1291
     54 H29         1.9737  -12.4103   -6.9457 H         1 <0>         0.4222
@<TRIPOS>BOND
     1    1    2 1
     2    1   26 1
     3    1   27 1
     4    1   28 1
     5    2    3 2
     6    2    4 1
     7    4    5 1
     8    5    6 1
     9    5   29 1
    10    5   30 1
    11    6    7 2
    12    6    8 am
    13    8    9 1
    14    8   31 1
    15    9   10 1
    16    9   32 1
    17    9   33 1
    18   10   11 1
    19   10   34 1
    20   10   35 1
    21   11   12 1
    22   11   36 1
    23   11   37 1
    24   12   13 1
    25   13   18 ar
    26   13   14 ar
    27   14   15 ar
    28   14   38 1
    29   15   16 ar
    30   15   39 1
    31   16   17 ar
    32   16   40 1
    33   17   18 ar
    34   17   19 1
    35   18   41 1
    36   19   20 1
    37   19   42 1
    38   19   43 1
    39   20   25 1
    40   20   21 1
    41   20   54 1
    42   21   22 1
    43   21   44 1
    44   21   45 1
    45   22   23 1
    46   22   46 1
    47   22   47 1
    48   23   24 1
    49   23   48 1
    50   23   49 1
    51   24   25 1
    52   24   50 1
    53   24   51 1
    54   25   52 1
    55   25   53 1
