@<TRIPOS>MOLECULE
DB08808_1
   41    41     0     0     0
SMALL
USER_CHARGES
1-(2-chloro-5-methyl-phenoxy)-3-tert-butylamino-propan-2-ol
@<TRIPOS>ATOM
      1 C1         -2.5589    3.8643    0.0472 C.3       1 <0>        -0.1216
      2 C2         -1.2414    3.1328    0.0307 C.ar      1 <0>        -0.0386
      3 C3         -1.2193    1.7503    0.0173 C.ar      1 <0>        -0.1372
      4 C4         -0.0126    1.0758    0.0080 C.ar      1 <0>        -0.0648
      5 C5          1.1755    1.7829    0.0004 C.ar      1 <0>        -0.0705
      6 C6          1.1553    3.1709    0.0081 C.ar      1 <0>         0.1325
      7 C7         -0.0572    3.8443    0.0233 C.ar      1 <0>        -0.2012
      8 O1          2.3217    3.8688    0.0011 O.3       1 <0>        -0.2901
      9 C8          2.2247    5.2945    0.0097 C.3       1 <0>         0.0284
     10 C9          3.6292    5.9013    0.0001 C.3       1 <0>         0.0876
     11 H1          4.2042    5.4997    0.8345 H         1 <0>         0.1357
     12 C10         3.5287    7.4220    0.1349 C.3       1 <0>        -0.0456
     13 C11         4.8197    9.4669    0.2536 C.3       1 <0>         0.0586
     14 C12         4.1344    9.8371    1.5704 C.3       1 <0>        -0.1786
     15 C13         6.2398   10.0362    0.2401 C.3       1 <0>        -0.1781
     16 C14         4.0252   10.0504   -0.9165 C.3       1 <0>        -0.1781
     17 O2          4.2810    5.5741   -1.2288 O.3       1 <0>        -0.5417
     18 Cl1         2.6907    0.9359   -0.0180 Cl        1 <0>        -0.0497
     19 H2         -2.8863    4.0462   -0.9764 H         1 <0>         0.0793
     20 H3         -3.3036    3.2599    0.5650 H         1 <0>         0.0766
     21 H4         -2.4395    4.8160    0.5651 H         1 <0>         0.0687
     22 H5         -2.1464    1.1963    0.0187 H         1 <0>         0.1390
     23 H6          0.0021   -0.0041    0.0020 H         1 <0>         0.1456
     24 H7         -0.0756    4.9241    0.0289 H         1 <0>         0.1324
     25 H8          1.6792    5.6268   -0.8736 H         1 <0>         0.0778
     26 H9          1.6955    5.6173    0.9063 H         1 <0>         0.0826
     27 H10         2.9537    7.8235   -0.6995 H         1 <0>         0.1398
     28 H11         3.0314    7.6716    1.0722 H         1 <0>         0.1466
     29 H12         4.7004    9.4214    2.4040 H         1 <0>         0.0834
     30 H13         4.0918   10.9221    1.6654 H         1 <0>         0.1069
     31 H14         3.1227    9.4316    1.5801 H         1 <0>         0.0803
     32 H15         6.7281    9.7724   -0.6981 H         1 <0>         0.0832
     33 H16         6.1972   11.1212    0.3350 H         1 <0>         0.1073
     34 H17         6.8059    9.6205    1.0737 H         1 <0>         0.0832
     35 H18         3.0135    9.6448   -0.9069 H         1 <0>         0.0798
     36 H19         3.9826   11.1354   -0.8216 H         1 <0>         0.1069
     37 H20         4.5135    9.7866   -1.8547 H         1 <0>         0.0830
     38 H21         3.8237    5.9007   -2.0157 H         1 <0>         0.3892
     39 N1          4.8862    7.9989    0.1248 N.4       1 <0>        -0.5079
     40 H22         5.3504    7.7571   -0.7585 H         1 <0>         0.4361
     41 H23         5.4236    7.6140    0.9105 H         1 <0>         0.4332
@<TRIPOS>BOND
     1    1    2 1
     2    1   19 1
     3    1   20 1
     4    1   21 1
     5    2    7 ar
     6    2    3 ar
     7    3    4 ar
     8    3   22 1
     9    4    5 ar
    10    4   23 1
    11    5    6 ar
    12    5   18 1
    13    6    7 ar
    14    6    8 1
    15    7   24 1
    16    8    9 1
    17    9   10 1
    18    9   25 1
    19    9   26 1
    20   10   11 1
    21   10   12 1
    22   10   17 1
    23   12   27 1
    24   12   28 1
    25   12   39 1
    26   13   14 1
    27   13   15 1
    28   13   16 1
    29   13   39 1
    30   14   29 1
    31   14   30 1
    32   14   31 1
    33   15   32 1
    34   15   33 1
    35   15   34 1
    36   16   35 1
    37   16   36 1
    38   16   37 1
    39   17   38 1
    40   39   40 1
    41   39   41 1
