@<TRIPOS>MOLECULE
DB08799_1
   40    42     0     0     0
SMALL
USER_CHARGES

@<TRIPOS>ATOM
      1 C1         -0.0167    1.3781    0.0096 C.ar      1 <0>        -0.1055
      2 C2          1.1709    2.0855    0.0021 C.ar      1 <0>        -0.1144
      3 C3          2.3773    1.4107   -0.0130 C.ar      1 <0>        -0.0998
      4 C4          2.3960    0.0285   -0.0201 C.ar      1 <0>        -0.1241
      5 C5          1.2084   -0.6789   -0.0117 C.ar      1 <0>        -0.1100
      6 C6          0.0021   -0.0041    0.0020 C.ar      1 <0>        -0.1175
      7 C7          3.7112   -0.7071   -0.0376 C.3       1 <0>         0.1625
      8 N1          4.1518   -0.9524    1.3379 N.pl3     1 <0>        -0.6158
      9 C8          3.7528   -2.1823    2.0266 C.3       1 <0>         0.1357
     10 C9          4.7800   -3.2556    1.7736 C.cat     1 <0>         0.4908
     11 N2          4.7044   -4.0763    0.7524 N.pl3     1 <0>        -0.6280
     12 C10         5.8500   -4.9997    0.7855 C.3       1 <0>         0.0566
     13 C11         6.6245   -4.5550    2.0435 C.3       1 <0>         0.0548
     14 N3          5.8188   -3.4347    2.5553 N.pl3     1 <0>        -0.6236
     15 C12         4.9524   -0.0136    1.9927 C.ar      1 <0>         0.1926
     16 C13         5.3758   -0.2473    3.2949 C.ar      1 <0>        -0.2033
     17 C14         6.1677    0.6828    3.9392 C.ar      1 <0>        -0.0697
     18 C15         6.5387    1.8458    3.2896 C.ar      1 <0>        -0.1542
     19 C16         6.1190    2.0816    1.9933 C.ar      1 <0>        -0.0661
     20 C17         5.3317    1.1531    1.3411 C.ar      1 <0>        -0.1765
     21 H1         -0.9591    1.9053    0.0259 H         1 <0>         0.1273
     22 H2          1.1563    3.1654    0.0076 H         1 <0>         0.1273
     23 H3          3.3051    1.9634   -0.0196 H         1 <0>         0.1235
     24 H4          1.2231   -1.7588   -0.0176 H         1 <0>         0.1161
     25 H5         -0.9258   -0.5567    0.0082 H         1 <0>         0.1262
     26 H6          3.5884   -1.6586   -0.5549 H         1 <0>         0.0812
     27 H7          4.4573   -0.1052   -0.5563 H         1 <0>         0.0976
     28 H8          3.6819   -1.9924    3.0976 H         1 <0>         0.1338
     29 H9          2.7838   -2.5110    1.6510 H         1 <0>         0.1334
     30 H10         5.5106   -6.0306    0.8869 H         1 <0>         0.1278
     31 H11         6.4651   -4.8820   -0.1067 H         1 <0>         0.1259
     32 H12         6.6714   -5.3639    2.7725 H         1 <0>         0.1284
     33 H13         7.6259   -4.2154    1.7789 H         1 <0>         0.1262
     34 H14         6.0226   -2.9121    3.3467 H         1 <0>         0.4578
     35 H15         5.0858   -1.1551    3.8030 H         1 <0>         0.1100
     36 H16         6.4973    0.5017    4.9516 H         1 <0>         0.1286
     37 H17         7.1575    2.5719    3.7960 H         1 <0>         0.1278
     38 H18         6.4105    2.9910    1.4889 H         1 <0>         0.1303
     39 H19         5.0079    1.3357    0.3271 H         1 <0>         0.1284
     40 H20         4.0037   -4.0749    0.0817 H         1 <0>         0.4579
@<TRIPOS>BOND
     1    1    6 ar
     2    1    2 ar
     3    1   21 1
     4    2    3 ar
     5    2   22 1
     6    3    4 ar
     7    3   23 1
     8    4    5 ar
     9    4    7 1
    10    5    6 ar
    11    5   24 1
    12    6   25 1
    13    7    8 1
    14    7   26 1
    15    7   27 1
    16    8    9 1
    17    8   15 1
    18    9   10 1
    19    9   28 1
    20    9   29 1
    21   10   14 1
    22   10   11 2
    23   11   12 1
    24   11   40 1
    25   12   13 1
    26   12   30 1
    27   12   31 1
    28   13   14 1
    29   13   32 1
    30   13   33 1
    31   14   34 1
    32   15   20 ar
    33   15   16 ar
    34   16   17 ar
    35   16   35 1
    36   17   18 ar
    37   17   36 1
    38   18   19 ar
    39   18   37 1
    40   19   20 ar
    41   19   38 1
    42   20   39 1
