@<TRIPOS>MOLECULE
DB08800_1
   42    43     0     0     0
SMALL
USER_CHARGES

@<TRIPOS>ATOM
      1 C1         -0.0178    1.4648    0.0101 C.3       1 <0>        -0.0588
      2 N1          0.0021   -0.0041    0.0020 N.4       1 <0>        -0.3835
      3 C2          0.7126   -0.4907    1.1921 C.3       1 <0>        -0.0492
      4 C3         -1.3761   -0.5125    0.0124 C.3       1 <0>        -0.0391
      5 C4         -2.0780   -0.1101   -1.2861 C.3       1 <0>         0.0881
      6 N2         -3.4524   -0.6172   -1.2757 N.pl3     1 <0>        -0.5897
      7 C5         -4.5324    0.2051   -0.7248 C.3       1 <0>         0.1402
      8 C6         -5.1228    1.0574   -1.8185 C.ar      1 <0>        -0.1451
      9 C7         -4.6024    2.3124   -2.0735 C.ar      1 <0>        -0.0833
     10 C8         -5.1435    3.0945   -3.0764 C.ar      1 <0>        -0.1002
     11 C9         -6.2062    2.6211   -3.8252 C.ar      1 <0>        -0.0138
     12 C10        -6.7266    1.3649   -3.5695 C.ar      1 <0>        -0.0987
     13 C11        -6.1810    0.5815   -2.5701 C.ar      1 <0>        -0.1001
     14 Cl1        -6.8867    3.6030   -5.0847 Cl        1 <0>        -0.0318
     15 C12        -3.7317   -1.8786   -1.7886 C.ar      1 <0>         0.4361
     16 C13        -2.7004   -2.6567   -2.3052 C.ar      1 <0>        -0.2058
     17 C14        -2.9925   -3.9098   -2.8122 C.ar      1 <0>         0.0479
     18 C15        -4.3113   -4.3446   -2.7857 C.ar      1 <0>        -0.1569
     19 C16        -5.2845   -3.5202   -2.2583 C.ar      1 <0>         0.1577
     20 N3         -4.9759   -2.3311   -1.7763 N.ar      1 <0>        -0.4981
     21 H1          1.0047    1.8421    0.0024 H         1 <0>         0.1356
     22 H2         -0.5450    1.8259   -0.8730 H         1 <0>         0.1232
     23 H3         -0.5280    1.8163    0.9069 H         1 <0>         0.1282
     24 H4          0.2024   -0.1392    2.0889 H         1 <0>         0.1261
     25 H5          0.7273   -1.5806    1.1861 H         1 <0>         0.1265
     26 H6          1.7352   -0.1134    1.1844 H         1 <0>         0.1340
     27 H7         -1.3618   -1.5992    0.0961 H         1 <0>         0.1372
     28 H8         -1.9129   -0.0898    0.8617 H         1 <0>         0.1415
     29 H9         -2.0923    0.9766   -1.3697 H         1 <0>         0.1249
     30 H10        -1.5412   -0.5328   -2.1354 H         1 <0>         0.1170
     31 H11        -5.3060   -0.4413   -0.3102 H         1 <0>         0.0964
     32 H12        -4.1354    0.8470    0.0617 H         1 <0>         0.1240
     33 H13        -3.7731    2.6820   -1.4886 H         1 <0>         0.1335
     34 H14        -4.7371    4.0751   -3.2753 H         1 <0>         0.1469
     35 H15        -7.5563    0.9949   -4.1535 H         1 <0>         0.1461
     36 H16        -6.5841   -0.4010   -2.3735 H         1 <0>         0.1156
     37 H17        -1.6857   -2.2870   -2.3104 H         1 <0>         0.1729
     38 H18        -2.2128   -4.5359   -3.2200 H         1 <0>         0.1805
     39 H19        -4.5726   -5.3179   -3.1742 H         1 <0>         0.1893
     40 H20        -6.3113   -3.8543   -2.2360 H         1 <0>         0.2147
     41 H21        -5.6786   -1.7731   -1.4076 H         1 <0>         0.4402
     42 H22         0.4743   -0.3295   -0.8281 H         1 <0>         0.4300
@<TRIPOS>BOND
     1    1    2 1
     2    1   21 1
     3    1   22 1
     4    1   23 1
     5    2    3 1
     6    2    4 1
     7    2   42 1
     8    3   24 1
     9    3   25 1
    10    3   26 1
    11    4    5 1
    12    4   27 1
    13    4   28 1
    14    5    6 1
    15    5   29 1
    16    5   30 1
    17    6    7 1
    18    6   15 1
    19    7    8 1
    20    7   31 1
    21    7   32 1
    22    8   13 ar
    23    8    9 ar
    24    9   10 ar
    25    9   33 1
    26   10   11 ar
    27   10   34 1
    28   11   12 ar
    29   11   14 1
    30   12   13 ar
    31   12   35 1
    32   13   36 1
    33   15   20 ar
    34   15   16 ar
    35   16   17 ar
    36   16   37 1
    37   17   18 ar
    38   17   38 1
    39   18   19 ar
    40   18   39 1
    41   19   20 ar
    42   19   40 1
    43   20   41 1
