@<TRIPOS>MOLECULE
DB08795_3
   42    44     0     0     0
SMALL
USER_CHARGES

@<TRIPOS>ATOM
      1 C1         -0.0187    1.5258    0.0104 C.3       1 <0>        -0.1217
      2 C2          0.0021   -0.0041    0.0020 C.3       1 <0>         0.0383
      3 C3         -1.4146   -0.5970    0.2500 C.3       1 <0>         0.0226
      4 H1         -1.9587    0.0520    0.9362 H         1 <0>         0.0747
      5 N1         -1.3325   -1.9435    0.8247 N.am      1 <0>        -0.4913
      6 C4         -0.1447   -2.2248    1.6423 C.3       1 <0>         0.1081
      7 H2          0.3905   -3.1473    1.4172 H         1 <0>         0.1461
      8 S1          0.8474   -0.6813    1.5011 S.3       1 <0>        -0.3059
      9 C5         -1.0573   -2.2709    2.8550 C.3       1 <0>         0.0867
     10 H3         -1.0109   -1.3789    3.4798 H         1 <0>         0.1585
     11 C6         -2.1619   -2.2497    1.8409 C.2       1 <0>         0.4912
     12 O1         -3.3580   -2.4381    1.9101 O.2       1 <0>        -0.4382
     13 N2         -0.9694   -3.5164    3.6212 N.am      1 <0>        -0.6980
     14 C7         -1.2953   -3.5276    4.9289 C.2       1 <0>         0.5013
     15 O2         -1.6613   -2.5065    5.4714 O.2       1 <0>        -0.5111
     16 C8         -1.2049   -4.8089    5.7170 C.3       1 <0>         0.1360
     17 H4         -1.5620   -5.6376    5.1056 H         1 <0>         0.1083
     18 C9          0.2285   -5.0564    6.1108 C.ar      1 <0>        -0.0771
     19 C10         0.7706   -4.3963    7.1977 C.ar      1 <0>        -0.0739
     20 C11         2.0854   -4.6233    7.5589 C.ar      1 <0>        -0.1216
     21 C12         2.8581   -5.5108    6.8334 C.ar      1 <0>        -0.1075
     22 C13         2.3158   -6.1716    5.7471 C.ar      1 <0>        -0.1194
     23 C14         0.9997   -5.9478    5.3885 C.ar      1 <0>        -0.1026
     24 N3         -2.0306   -4.7001    6.9223 N.2       1 <0>        -0.3782
     25 N4         -3.1464   -4.5986    6.8319 N.1       1 <0>         0.3004
     26 N5         -4.2383   -4.4993    6.7434 N.1       1 <0>        -0.1452
     27 C15        -2.1579   -0.6652   -1.0592 C.2       1 <0>         0.5146
     28 O3         -2.3895   -1.7463   -1.5731 O.co2     1 <0>        -0.6584
     29 O4         -2.5276    0.3607   -1.6045 O.co2     1 <0>        -0.6832
     30 C16         0.6227   -0.5460   -1.2872 C.3       1 <0>        -0.1276
     31 H5          1.0039    1.9031    0.0027 H         1 <0>         0.0636
     32 H6         -0.5459    1.8868   -0.8726 H         1 <0>         0.0936
     33 H7         -0.5289    1.8773    0.9072 H         1 <0>         0.0638
     34 H8         -0.6767   -4.3331    3.1873 H         1 <0>         0.4096
     35 H9          0.1669   -3.7029    7.7644 H         1 <0>         0.1322
     36 H10         2.5091   -4.1070    8.4076 H         1 <0>         0.1259
     37 H11         3.8856   -5.6876    7.1152 H         1 <0>         0.1241
     38 H12         2.9196   -6.8647    5.1802 H         1 <0>         0.1274
     39 H13         0.5748   -6.4668    4.5421 H         1 <0>         0.1266
     40 H14         1.6433   -0.1753   -1.3829 H         1 <0>         0.0611
     41 H15         0.6333   -1.6354   -1.2553 H         1 <0>         0.0646
     42 H16         0.0336   -0.2132   -2.1418 H         1 <0>         0.0817
@<TRIPOS>BOND
     1    1    2 1
     2    1   31 1
     3    1   32 1
     4    1   33 1
     5    2    8 1
     6    2    3 1
     7    2   30 1
     8    3    4 1
     9    3    5 1
    10    3   27 1
    11    5   11 am
    12    5    6 1
    13    6    7 1
    14    6    8 1
    15    6    9 1
    16    9   10 1
    17    9   11 1
    18    9   13 1
    19   11   12 2
    20   13   14 am
    21   13   34 1
    22   14   15 2
    23   14   16 1
    24   16   17 1
    25   16   18 1
    26   16   24 1
    27   18   23 ar
    28   18   19 ar
    29   19   20 ar
    30   19   35 1
    31   20   21 ar
    32   20   36 1
    33   21   22 ar
    34   21   37 1
    35   22   23 ar
    36   22   38 1
    37   23   39 1
    38   24   25 2
    39   25   26 2
    40   27   28 2
    41   27   29 1
    42   30   40 1
    43   30   41 1
    44   30   42 1
