@<TRIPOS>MOLECULE
DB08802_1
   40    42     0     0     0
SMALL
USER_CHARGES
N,N-dimethyl-1-BLAHyl-propan-2-amine
@<TRIPOS>ATOM
      1 C1         -3.0391   -1.3429   -1.8340 C.3       1 <0>        -0.1651
      2 C2         -1.9580   -1.4312   -0.7550 C.3       1 <0>        -0.0012
      3 H1         -0.9742   -1.3707   -1.2205 H         1 <0>         0.1397
      4 C3         -2.1270   -0.2747    0.2323 C.3       1 <0>         0.1080
      5 N1         -1.8898    0.9954   -0.4582 N.pl3     1 <0>        -0.5421
      6 C4         -0.5709    1.4247   -0.5841 C.ar      1 <0>         0.1784
      7 C5          0.4501    0.4814   -0.5252 C.ar      1 <0>        -0.1644
      8 C6          1.7705    0.8745   -0.6279 C.ar      1 <0>        -0.0770
      9 C7          2.0891    2.2102   -0.7852 C.ar      1 <0>        -0.1195
     10 C8          1.0830    3.1570   -0.8430 C.ar      1 <0>        -0.0515
     11 C9         -0.2453    2.7690   -0.7418 C.ar      1 <0>        -0.1449
     12 S1         -1.5156    3.9868   -0.8240 S.3       1 <0>         0.0516
     13 C10        -2.9727    3.0551   -1.1524 C.ar      1 <0>        -0.1916
     14 C11        -2.9952    1.6769   -0.9418 C.ar      1 <0>         0.3765
     15 N2         -4.1038    0.9918   -1.2010 N.ar      1 <0>        -0.5174
     16 C12        -5.1987    1.5735   -1.6517 C.ar      1 <0>         0.1355
     17 C13        -5.2430    2.9334   -1.8775 C.ar      1 <0>        -0.1749
     18 C14        -4.1091    3.6962   -1.6244 C.ar      1 <0>        -0.0155
     19 C15        -1.9537   -3.8436   -0.9623 C.3       1 <0>        -0.0449
     20 C16        -1.1019   -2.7999    1.0496 C.3       1 <0>        -0.0515
     21 H2         -2.9187   -2.1668   -2.5373 H         1 <0>         0.0718
     22 H3         -4.0228   -1.4034   -1.3684 H         1 <0>         0.0917
     23 H4         -2.9460   -0.3955   -2.3649 H         1 <0>         0.1032
     24 H5         -1.4111   -0.3846    1.0468 H         1 <0>         0.0993
     25 H6         -3.1399   -0.2857    0.6349 H         1 <0>         0.1120
     26 H7          0.2089   -0.5643   -0.4031 H         1 <0>         0.1200
     27 H8          2.5568    0.1353   -0.5854 H         1 <0>         0.1365
     28 H9          3.1226    2.5141   -0.8626 H         1 <0>         0.1407
     29 H10         1.3315    4.2006   -0.9675 H         1 <0>         0.1422
     30 H11        -6.0757    0.9743   -1.8476 H         1 <0>         0.1695
     31 H12        -6.1457    3.3987   -2.2450 H         1 <0>         0.1511
     32 H13        -4.1125    4.7632   -1.7913 H         1 <0>         0.1513
     33 H14        -0.9777   -3.8087   -1.4464 H         1 <0>         0.1221
     34 H15        -2.0505   -4.7763   -0.4066 H         1 <0>         0.1251
     35 H16        -2.7366   -3.7884   -1.7187 H         1 <0>         0.1245
     36 H17        -1.3379   -2.0605    1.8148 H         1 <0>         0.1217
     37 H18        -1.1358   -3.7981    1.4861 H         1 <0>         0.1283
     38 H19        -0.1035   -2.6093    0.6559 H         1 <0>         0.1229
     39 N3         -2.1097   -2.7091   -0.0278 N.4       1 <0>        -0.3929
     40 H20        -3.0474   -2.7466    0.3887 H         1 <0>         0.4308
@<TRIPOS>BOND
     1    1    2 1
     2    1   21 1
     3    1   22 1
     4    1   23 1
     5    2    3 1
     6    2    4 1
     7    2   39 1
     8    4    5 1
     9    4   24 1
    10    4   25 1
    11    5   14 1
    12    5    6 1
    13    6   11 ar
    14    6    7 ar
    15    7    8 ar
    16    7   26 1
    17    8    9 ar
    18    8   27 1
    19    9   10 ar
    20    9   28 1
    21   10   11 ar
    22   10   29 1
    23   11   12 1
    24   12   13 1
    25   13   18 ar
    26   13   14 ar
    27   14   15 ar
    28   15   16 ar
    29   16   17 ar
    30   16   30 1
    31   17   18 ar
    32   17   31 1
    33   18   32 1
    34   19   33 1
    35   19   34 1
    36   19   35 1
    37   19   39 1
    38   20   36 1
    39   20   37 1
    40   20   38 1
    41   20   39 1
    42   39   40 1
