@<TRIPOS>MOLECULE
DB08803_1
   38    39     0     0     0
SMALL
USER_CHARGES
2-[(2-isopropyl-5-methyl-phenoxy)methyl]-4,5-dihydro-1H-imidazole
@<TRIPOS>ATOM
      1 C1          1.2293   -2.1840   -0.0214 C.3       1 <0>        -0.1229
      2 C2          1.2081   -0.6771   -0.0131 C.ar      1 <0>        -0.0448
      3 C3          2.3962    0.0305   -0.0211 C.ar      1 <0>        -0.1345
      4 C4          2.3801    1.4128   -0.0135 C.ar      1 <0>        -0.0705
      5 C5          1.1763    2.0908    0.0021 C.ar      1 <0>        -0.0968
      6 C6         -0.0167    1.3833    0.0096 C.ar      1 <0>         0.1164
      7 C7          0.0021   -0.0041    0.0020 C.ar      1 <0>        -0.2008
      8 O1         -1.2021    2.0479    0.0189 O.3       1 <0>        -0.3194
      9 C8         -2.3907    1.2546    0.0202 C.3       1 <0>         0.0729
     10 C9         -3.5972    2.1574    0.0308 C.cat     1 <0>         0.5154
     11 C10        -4.8451    4.0411    0.0470 C.3       1 <0>         0.0480
     12 C11        -5.7972    2.8279    0.0449 C.3       1 <0>         0.0693
     13 N1         -4.8739    1.6804    0.0343 N.pl3     1 <0>        -0.6606
     14 C12         1.1596    3.5977    0.0098 C.3       1 <0>        -0.0470
     15 C13         1.8867    4.1094    1.2549 C.3       1 <0>        -0.1487
     16 C14         1.8634    4.1220   -1.2434 C.3       1 <0>        -0.1487
     17 H1          1.2246   -2.5417   -1.0510 H         1 <0>         0.0783
     18 H2          2.1291   -2.5375    0.4820 H         1 <0>         0.0753
     19 H3          0.3494   -2.5626    0.4988 H         1 <0>         0.0686
     20 H4          3.3382   -0.4976   -0.0329 H         1 <0>         0.1324
     21 H5          3.3093    1.9633   -0.0198 H         1 <0>         0.1368
     22 H6         -0.9255   -0.5572    0.0075 H         1 <0>         0.1278
     23 H7         -2.4118    0.6303   -0.8731 H         1 <0>         0.1319
     24 H8         -2.4034    0.6207    0.9068 H         1 <0>         0.1319
     25 H9         -4.9973    4.6485   -0.8452 H         1 <0>         0.1315
     26 H10        -4.9906    4.6402    0.9459 H         1 <0>         0.1312
     27 H11        -6.4207    2.8290   -0.8491 H         1 <0>         0.1249
     28 H12        -6.4144    2.8175    0.9433 H         1 <0>         0.1252
     29 H13        -5.1306    0.7450    0.0309 H         1 <0>         0.4596
     30 H14         0.1280    3.9495    0.0212 H         1 <0>         0.0738
     31 H15         2.9183    3.7576    1.2435 H         1 <0>         0.0612
     32 H16         1.8746    5.1994    1.2605 H         1 <0>         0.0624
     33 H17         1.3853    3.7359    2.1477 H         1 <0>         0.0553
     34 H18         1.3453    3.7575   -2.1305 H         1 <0>         0.0553
     35 H19         1.8512    5.2120   -1.2378 H         1 <0>         0.0624
     36 H20         2.8950    3.7702   -1.2549 H         1 <0>         0.0612
     37 N2         -3.5014    3.4388    0.0428 N.pl3     1 <0>        -0.5962
     38 H21        -2.6194    3.9643    0.0487 H         1 <0>         0.4824
@<TRIPOS>BOND
     1    1    2 1
     2    1   17 1
     3    1   18 1
     4    1   19 1
     5    2    7 ar
     6    2    3 ar
     7    3    4 ar
     8    3   20 1
     9    4    5 ar
    10    4   21 1
    11    5    6 ar
    12    5   14 1
    13    6    7 ar
    14    6    8 1
    15    7   22 1
    16    8    9 1
    17    9   10 1
    18    9   23 1
    19    9   24 1
    20   10   13 1
    21   10   37 2
    22   11   12 1
    23   11   25 1
    24   11   26 1
    25   11   37 1
    26   12   13 1
    27   12   27 1
    28   12   28 1
    29   13   29 1
    30   14   15 1
    31   14   16 1
    32   14   30 1
    33   15   31 1
    34   15   32 1
    35   15   33 1
    36   16   34 1
    37   16   35 1
    38   16   36 1
    39   37   38 1
