REMARK  6 active torsions:
REMARK  status: ('A' for Active; 'I' for Inactive)
REMARK    1  A    between atoms: N1_2  and  C3_4 
REMARK    2  A    between atoms: C3_4  and  C4_5 
REMARK    3  A    between atoms: C4_5  and  N2_6 
REMARK    4  A    between atoms: N2_6  and  C5_7 
REMARK    5  A    between atoms: N2_6  and  C12_15 
REMARK    6  A    between atoms: C5_7  and  C6_8 
ROOT
ATOM      1  N2  <0> d          -3.452  -0.617  -1.276  0.00  0.00    -0.361 N 
ENDROOT
BRANCH   1   2
ATOM      2  C4  <0> d          -2.078  -0.110  -1.286  0.00  0.00     0.152 C 
BRANCH   2   3
ATOM      3  C3  <0> d          -1.376  -0.512   0.012  0.00  0.00     0.253 C 
BRANCH   3   4
ATOM      4  N1  <0> d           0.002  -0.004   0.002  0.00  0.00    -0.077 N 
ATOM      5  C1  <0> d          -0.018   1.465   0.010  0.00  0.00     0.269 C 
ATOM      6  C2  <0> d           0.713  -0.491   1.192  0.00  0.00     0.269 C 
ATOM      7  H22 <0> d           0.474  -0.330  -0.828  0.00  0.00     0.279 HD
ENDBRANCH   3   4
ENDBRANCH   2   3
ENDBRANCH   1   2
BRANCH   1   8
ATOM      8  C5  <0> d          -4.532   0.205  -0.725  0.00  0.00     0.162 C 
BRANCH   8   9
ATOM      9  C6  <0> d          -5.123   1.057  -1.819  0.00  0.00    -0.040 A 
ATOM     10  C11 <0> d          -6.181   0.582  -2.570  0.00  0.00     0.010 A 
ATOM     11  C10 <0> d          -6.727   1.365  -3.570  0.00  0.00     0.024 A 
ATOM     12  C9  <0> d          -6.206   2.621  -3.825  0.00  0.00     0.034 A 
ATOM     13  C8  <0> d          -5.144   3.095  -3.076  0.00  0.00     0.024 A 
ATOM     14 Cl1  <0> d          -6.887   3.603  -5.085  0.00  0.00    -0.084 Cl
ATOM     15  C7  <0> d          -4.602   2.312  -2.074  0.00  0.00     0.010 A 
ENDBRANCH   8   9
ENDBRANCH   1   8
BRANCH   1  16
ATOM     16  C12 <0> d          -3.732  -1.879  -1.789  0.00  0.00     0.103 A 
ATOM     17  N3  <0> d          -4.976  -2.331  -1.776  0.00  0.00    -0.352 N 
ATOM     18  C16 <0> d          -5.285  -3.520  -2.258  0.00  0.00     0.089 A 
ATOM     19  H21 <0> d          -5.679  -1.773  -1.408  0.00  0.00     0.166 HD
ATOM     20  C15 <0> d          -4.311  -4.345  -2.786  0.00  0.00     0.017 A 
ATOM     21  C14 <0> d          -2.993  -3.910  -2.812  0.00  0.00     0.005 A 
ATOM     22  C13 <0> d          -2.700  -2.657  -2.305  0.00  0.00     0.048 A 
ENDBRANCH   1  16
TORSDOF 6
