REMARK  3 active torsions:
REMARK  status: ('A' for Active; 'I' for Inactive)
REMARK    1  A    between atoms: C2_2  and  C3_3 
REMARK    2  A    between atoms: C2_2  and  N3_18 
REMARK    3  A    between atoms: C3_3  and  N1_4 
ROOT
ATOM      1  N1  <0> d           0.294  -1.998  -1.348  0.00  0.00    -0.327 N 
ATOM      2  C4  <0> d           1.326  -2.725  -0.760  0.00  0.00     0.053 A 
ATOM      3  C5  <0> d           2.572  -2.124  -0.617  0.00  0.00     0.031 A 
ATOM      4  C6  <0> d           3.617  -2.814  -0.033  0.00  0.00     0.002 A 
ATOM      5  C7  <0> d           3.433  -4.109   0.414  0.00  0.00     0.002 A 
ATOM      6  C8  <0> d           2.199  -4.717   0.275  0.00  0.00     0.021 A 
ATOM      7  C9  <0> d           1.146  -4.031  -0.313  0.00  0.00     0.032 A 
ATOM      8  S1  <0> d          -0.416  -4.824  -0.492  0.00  0.00    -0.084 SA
ATOM      9  C10 <0> d          -1.259  -3.835  -1.679  0.00  0.00     0.051 A 
ATOM     10  C11 <0> d          -0.816  -2.547  -1.970  0.00  0.00     0.147 A 
ATOM     11  N2  <0> d          -1.468  -1.819  -2.870  0.00  0.00    -0.242 NA
ATOM     12  C12 <0> d          -2.535  -2.272  -3.498  0.00  0.00     0.119 A 
ATOM     13  C13 <0> d          -3.028  -3.536  -3.248  0.00  0.00     0.021 A 
ATOM     14  C14 <0> d          -2.378  -4.339  -2.327  0.00  0.00     0.024 A 
ENDROOT
BRANCH   1  15
ATOM     15  C3  <0> d           0.386  -0.536  -1.300  0.00  0.00     0.163 C 
BRANCH  15  16
ATOM     16  C2  <0> d          -0.400  -0.015  -0.095  0.00  0.00     0.201 C 
ATOM     17  C1  <0> d           0.246  -0.525   1.194  0.00  0.00     0.042 C 
BRANCH  16  18
ATOM     18  N3  <0> d          -0.388   1.454  -0.101  0.00  0.00    -0.073 N 
ATOM     19  C15 <0> d          -1.037   1.944  -1.325  0.00  0.00     0.269 C 
ATOM     20  C16 <0> d          -1.116   1.954   1.073  0.00  0.00     0.269 C 
ATOM     21  H20 <0> d           0.565   1.783  -0.071  0.00  0.00     0.279 HD
ENDBRANCH  16  18
ENDBRANCH  15  16
ENDBRANCH   1  15
TORSDOF 3
