REMARK  6 active torsions:
REMARK  status: ('A' for Active; 'I' for Inactive)
REMARK    1  A    between atoms: C2_2  and  C3_3 
REMARK    2  A    between atoms: C6_6  and  O4_27 
REMARK    3  A    between atoms: C7_7  and  O3_25 
REMARK    4  A    between atoms: C10_10  and  C13_15 
REMARK    5  A    between atoms: C16_18  and  O2_23 
REMARK    6  A    between atoms: C17_19  and  O1_21 
ROOT
ATOM      1  C3  <0> d           0.772  -0.639  -1.168  0.00  0.00     0.068 A 
ATOM      2  C4  <0> d           0.880  -2.128  -0.923  0.00  0.00    -0.033 A 
ATOM      3  C5  <0> d           1.492  -2.443   0.263  0.00  0.00     0.048 A 
ATOM      4  C6  <0> d           1.658  -3.778   0.615  0.00  0.00     0.102 A 
ATOM      5  C7  <0> d           1.206  -4.789  -0.232  0.00  0.00     0.102 A 
ATOM      6  C8  <0> d           0.589  -4.474  -1.429  0.00  0.00     0.054 A 
ATOM      7  C9  <0> d           0.423  -3.136  -1.780  0.00  0.00     0.005 A 
ATOM      8  C10 <0> d          -0.251  -2.958  -3.082  0.00  0.00     0.100 A 
ATOM      9  N1  <0> d          -0.558  -1.841  -3.700  0.00  0.00    -0.149 NA
ATOM     10  N2  <0> d          -0.391  -0.609  -3.407  0.00  0.00    -0.158 NA
ATOM     11  C11 <0> d           0.142  -0.009  -2.395  0.00  0.00     0.039 A 
ATOM     12  C12 <0> d           0.137   1.498  -2.440  0.00  0.00     0.068 C 
ENDROOT
BRANCH   8  13
ATOM     13  C13 <0> d          -0.630  -4.202  -3.782  0.00  0.00    -0.002 A 
ATOM     14  C18 <0> d           0.297  -4.856  -4.598  0.00  0.00     0.053 A 
ATOM     15  C17 <0> d          -0.060  -6.023  -5.246  0.00  0.00     0.102 A 
ATOM     16  C16 <0> d          -1.347  -6.539  -5.094  0.00  0.00     0.101 A 
ATOM     17  C15 <0> d          -2.269  -5.886  -4.288  0.00  0.00     0.040 A 
ATOM     18  C14 <0> d          -1.917  -4.725  -3.634  0.00  0.00     0.017 A 
BRANCH  15  19
ATOM     19  O1  <0> d           0.841  -6.666  -6.036  0.00  0.00    -0.353 OA
ATOM     20  C19 <0> d           2.140  -6.082  -6.146  0.00  0.00     0.210 C 
ENDBRANCH  15  19
BRANCH  16  21
ATOM     21  O2  <0> d          -1.698  -7.683  -5.737  0.00  0.00    -0.353 OA
ATOM     22  C20 <0> d          -3.032  -8.156  -5.537  0.00  0.00     0.210 C 
ENDBRANCH  16  21
ENDBRANCH   8  13
BRANCH   1  23
ATOM     23  C2  <0> d           0.035  -0.058   0.041  0.00  0.00     0.011 C 
ATOM     24  C1  <0> d          -1.432  -0.491   0.001  0.00  0.00     0.006 C 
ENDBRANCH   1  23
BRANCH   5  25
ATOM     25  O3  <0> d           1.374  -6.092   0.121  0.00  0.00    -0.353 OA
ATOM     26  C21 <0> d           0.888  -7.079  -0.791  0.00  0.00     0.210 C 
ENDBRANCH   5  25
BRANCH   4  27
ATOM     27  O4  <0> d           2.264  -4.098   1.788  0.00  0.00    -0.353 OA
ATOM     28  C22 <0> d           2.703  -3.014   2.609  0.00  0.00     0.210 C 
ENDBRANCH   4  27
TORSDOF 6
