REMARK  2 active torsions:
REMARK  status: ('A' for Active; 'I' for Inactive)
REMARK    1  A    between atoms: C4_4  and  O2_10 
REMARK    2  A    between atoms: C5_5  and  C7_7 
REMARK       I    between atoms: C7_7  and  N1_9 
ROOT
ATOM      1  C1  <0> d          -0.017   1.374   0.010  0.00  0.00     0.001 A 
ATOM      2  C2  <0> d           1.170   2.089   0.002  0.00  0.00     0.003 A 
ATOM      3  C3  <0> d           2.383   1.429  -0.013  0.00  0.00     0.037 A 
ATOM      4  C4  <0> d           2.420   0.043  -0.021  0.00  0.00     0.081 A 
ATOM      5  C5  <0> d           1.222  -0.684  -0.013  0.00  0.00     0.064 A 
ATOM      6  C6  <0> d           0.002  -0.004   0.002  0.00  0.00     0.020 A 
ENDROOT
BRANCH   5   7
ATOM      7  C7  <0> d           1.250  -2.159  -0.022  0.00  0.00     0.252 C 
ATOM      8  O1  <0> d           2.314  -2.748  -0.036  0.00  0.00    -0.268 OA
ATOM      9  N1  <0> d           0.095  -2.855  -0.014  0.00  0.00    -0.366 N 
ATOM     10  H5  <0> d          -0.754  -2.385  -0.003  0.00  0.00     0.159 HD
ATOM     11  H6  <0> d           0.113  -3.824  -0.020  0.00  0.00     0.159 HD
ENDBRANCH   5   7
BRANCH   4  12
ATOM     12  O2  <0> d           3.611  -0.606  -0.037  0.00  0.00    -0.360 OA
ATOM     13  H7  <0> d           3.966  -0.799   0.842  0.00  0.00     0.217 HD
ENDBRANCH   4  12
TORSDOF 2
