REMARK  9 active torsions:
REMARK  status: ('A' for Active; 'I' for Inactive)
REMARK    1  A    between atoms: C9_11  and  O1_12 
REMARK    2  A    between atoms: O1_12  and  C10_13 
REMARK    3  A    between atoms: C10_13  and  C11_14 
REMARK    4  A    between atoms: C11_14  and  C12_15 
REMARK    5  A    between atoms: C11_14  and  O2_21 
REMARK    6  A    between atoms: C12_15  and  N2_16 
REMARK    7  A    between atoms: N2_16  and  C13_17 
REMARK    8  A    between atoms: O2_21  and  C17_22 
REMARK    9  A    between atoms: C17_22  and  C18_24 
ROOT
ATOM      1  C11 <0> d           0.044  -4.589  -4.803  0.00  0.00     0.182 C 
ENDROOT
BRANCH   1   2
ATOM      2  C10 <0> d           0.052  -4.738  -3.281  0.00  0.00     0.210 C 
BRANCH   2   3
ATOM      3  O1  <0> d           0.037  -3.443  -2.676  0.00  0.00    -0.348 OA
BRANCH   3   4
ATOM      4  C9  <0> d           0.043  -3.397  -1.318  0.00  0.00     0.081 A 
ATOM      5  C4  <0> d           0.028  -2.164  -0.654  0.00  0.00     0.026 A 
ATOM      6  C3  <0> d           0.007  -0.769  -1.101  0.00  0.00     0.041 A 
ATOM      7  C5  <0> d           0.034  -2.123   0.751  0.00  0.00     0.045 A 
ATOM      8  C2  <0> d           0.002  -0.004   0.002  0.00  0.00     0.006 A 
ATOM      9  C1  <0> d          -0.018   1.503   0.010  0.00  0.00     0.068 C 
ATOM     10  N1  <0> d           0.024  -0.796   1.119  0.00  0.00    -0.359 N 
ATOM     11  H1  <0> d           0.029  -0.471   2.033  0.00  0.00     0.166 HD
ATOM     12  C6  <0> d           0.054  -3.315   1.470  0.00  0.00     0.030 A 
ATOM     13  C7  <0> d           0.068  -4.521   0.805  0.00  0.00     0.005 A 
ATOM     14  C8  <0> d           0.062  -4.566  -0.582  0.00  0.00     0.038 A 
ENDBRANCH   3   4
ENDBRANCH   2   3
ENDBRANCH   1   2
BRANCH   1  15
ATOM     15  C12 <0> d           1.211  -3.700  -5.236  0.00  0.00     0.267 C 
BRANCH  15  16
ATOM     16  N2  <0> d           1.203  -3.557  -6.698  0.00  0.00    -0.065 N 
ATOM     17  H14 <0> d           1.296  -4.467  -7.125  0.00  0.00     0.278 HD
ATOM     18  H29 <0> d           0.334  -3.136  -6.990  0.00  0.00     0.278 HD
BRANCH  16  19
ATOM     19  C13 <0> d           2.324  -2.704  -7.113  0.00  0.00     0.115 C 
ATOM     20  C14 <0> d           3.642  -3.342  -6.670  0.00  0.00     0.045 C 
ATOM     21  C15 <0> d           2.315  -2.555  -8.636  0.00  0.00     0.045 C 
ATOM     22  C16 <0> d           2.182  -1.325  -6.465  0.00  0.00     0.045 C 
ENDBRANCH  16  19
ENDBRANCH  15  16
ENDBRANCH   1  15
BRANCH   1  23
ATOM     23  O2  <0> d          -1.188  -3.993  -5.217  0.00  0.00    -0.308 OA
BRANCH  23  24
ATOM     24  C17 <0> d          -1.651  -4.329  -6.436  0.00  0.00     0.293 C 
ATOM     25  O3  <0> d          -1.026  -5.107  -7.130  0.00  0.00    -0.259 OA
BRANCH  24  26
ATOM     26  C18 <0> d          -2.917  -3.752  -6.930  0.00  0.00     0.039 A 
ATOM     27  C23 <0> d          -3.400  -4.098  -8.194  0.00  0.00     0.017 A 
ATOM     28  C22 <0> d          -4.587  -3.560  -8.646  0.00  0.00     0.001 A 
ATOM     29  C21 <0> d          -5.293  -2.670  -7.856  0.00  0.00     0.000 A 
ATOM     30  C20 <0> d          -4.817  -2.318  -6.605  0.00  0.00     0.001 A 
ATOM     31  C19 <0> d          -3.635  -2.853  -6.138  0.00  0.00     0.017 A 
ENDBRANCH  24  26
ENDBRANCH  23  24
ENDBRANCH   1  23
TORSDOF 9
