REMARK  5 active torsions:
REMARK  status: ('A' for Active; 'I' for Inactive)
REMARK    1  A    between atoms: N1_2  and  C2_3 
REMARK       I    between atoms: N1_2  and  C13_17 
REMARK    2  A    between atoms: C5_6  and  O1_9 
REMARK    3  A    between atoms: O1_9  and  C8_10 
REMARK    4  A    between atoms: C8_10  and  C9_12 
REMARK    5  A    between atoms: C13_17  and  C14_19 
ROOT
ATOM      1  C2  <0> d           2.455   0.053  -0.167  0.00  0.00     0.036 A 
ATOM      2  C3  <0> d           1.248  -0.625  -0.267  0.00  0.00     0.032 A 
ATOM      3  C4  <0> d           0.064   0.081  -0.344  0.00  0.00     0.039 A 
ATOM      4  C5  <0> d           0.081   1.468  -0.321  0.00  0.00     0.079 A 
ATOM      5  C6  <0> d           1.287   2.146  -0.221  0.00  0.00     0.039 A 
ATOM      6  C7  <0> d           2.472   1.441  -0.144  0.00  0.00     0.032 A 
ENDROOT
BRANCH   4   7
ATOM      7  O1  <0> d          -1.085   2.163  -0.402  0.00  0.00    -0.273 OA
BRANCH   7   8
ATOM      8  C8  <0> d          -1.938   2.051   0.637  0.00  0.00     0.322 C 
ATOM      9  O2  <0> d          -1.691   1.283   1.547  0.00  0.00    -0.257 OA
BRANCH   8  10
ATOM     10  C9  <0> d          -3.164   2.853   0.668  0.00  0.00     0.150 A 
ATOM     11  O3  <0> d          -3.554   3.741  -0.269  0.00  0.00    -0.317 OA
ATOM     12  C12 <0> d          -4.724   4.282   0.091  0.00  0.00     0.143 A 
ATOM     13  C11 <0> d          -5.102   3.753   1.276  0.00  0.00     0.027 A 
ATOM     14  C10 <0> d          -4.109   2.836   1.654  0.00  0.00     0.045 A 
ENDBRANCH   8  10
ENDBRANCH   7   8
ENDBRANCH   4   7
BRANCH   1  15
ATOM     15  N1  <0> d           3.657  -0.663  -0.089  0.00  0.00    -0.320 N 
ATOM     16  C1  <0> d           3.851  -1.655   0.972  0.00  0.00     0.159 C 
ATOM     17  C13 <0> d           4.634  -0.441  -0.990  0.00  0.00     0.257 C 
ATOM     18  O4  <0> d           4.517   0.453  -1.803  0.00  0.00    -0.270 OA
BRANCH  17  19
ATOM     19  C14 <0> d           5.871  -1.302  -0.989  0.00  0.00     0.270 C 
ATOM     20 Cl1  <0> d           5.396  -3.036  -1.119  0.00  0.00    -0.098 Cl
ATOM     21 Cl2  <0> d           6.914  -0.857  -2.391  0.00  0.00    -0.098 Cl
ENDBRANCH  17  19
ENDBRANCH   1  15
TORSDOF 5
