REMARK  3 active torsions:
REMARK  status: ('A' for Active; 'I' for Inactive)
REMARK    1  A    between atoms: C2_2  and  C3_3 
REMARK    2  A    between atoms: C2_2  and  N3_20 
REMARK    3  A    between atoms: C3_3  and  N1_4 
ROOT
ATOM      1  N1  <0> d          -1.890   0.995  -0.458  0.00  0.00    -0.327 N 
ATOM      2  C4  <0> d          -0.571   1.425  -0.584  0.00  0.00     0.053 A 
ATOM      3  C5  <0> d           0.450   0.481  -0.525  0.00  0.00     0.031 A 
ATOM      4  C6  <0> d           1.770   0.875  -0.628  0.00  0.00     0.002 A 
ATOM      5  C7  <0> d           2.089   2.210  -0.785  0.00  0.00     0.002 A 
ATOM      6  C8  <0> d           1.083   3.157  -0.843  0.00  0.00     0.021 A 
ATOM      7  C9  <0> d          -0.245   2.769  -0.742  0.00  0.00     0.032 A 
ATOM      8  S1  <0> d          -1.516   3.987  -0.824  0.00  0.00    -0.084 SA
ATOM      9  C10 <0> d          -2.973   3.055  -1.152  0.00  0.00     0.051 A 
ATOM     10  C11 <0> d          -2.995   1.677  -0.942  0.00  0.00     0.147 A 
ATOM     11  N2  <0> d          -4.104   0.992  -1.201  0.00  0.00    -0.242 NA
ATOM     12  C12 <0> d          -5.199   1.573  -1.652  0.00  0.00     0.119 A 
ATOM     13  C13 <0> d          -5.243   2.933  -1.877  0.00  0.00     0.021 A 
ATOM     14  C14 <0> d          -4.109   3.696  -1.624  0.00  0.00     0.024 A 
ENDROOT
BRANCH   1  15
ATOM     15  C3  <0> d          -2.127  -0.275   0.232  0.00  0.00     0.163 C 
BRANCH  15  16
ATOM     16  C2  <0> d          -1.958  -1.431  -0.755  0.00  0.00     0.201 C 
ATOM     17  C1  <0> d          -3.039  -1.343  -1.834  0.00  0.00     0.042 C 
BRANCH  16  18
ATOM     18  N3  <0> d          -2.110  -2.709  -0.028  0.00  0.00    -0.073 N 
ATOM     19  C15 <0> d          -1.954  -3.844  -0.962  0.00  0.00     0.269 C 
ATOM     20  C16 <0> d          -1.102  -2.800   1.050  0.00  0.00     0.269 C 
ATOM     21  H20 <0> d          -3.047  -2.747   0.389  0.00  0.00     0.279 HD
ENDBRANCH  16  18
ENDBRANCH  15  16
ENDBRANCH   1  15
TORSDOF 3
