REMARK  7 active torsions:
REMARK  status: ('A' for Active; 'I' for Inactive)
REMARK    1  A    between atoms: C6_6  and  O1_8 
REMARK    2  A    between atoms: O1_8  and  C8_9 
REMARK    3  A    between atoms: C8_9  and  C9_10 
REMARK    4  A    between atoms: C9_10  and  C10_11 
REMARK    5  A    between atoms: C9_10  and  O2_16 
REMARK    6  A    between atoms: C10_11  and  N1_19 
REMARK    7  A    between atoms: C11_12  and  N1_19 
ROOT
ATOM      1  C9  <0> d           1.027   3.535   0.011  0.00  0.00     0.168 C 
ENDROOT
BRANCH   1   2
ATOM      2  C8  <0> d           1.248   2.021   0.001  0.00  0.00     0.209 C 
BRANCH   2   3
ATOM      3  O1  <0> d          -0.016   1.355   0.009  0.00  0.00    -0.347 OA
BRANCH   3   4
ATOM      4  C6  <0> d           0.002  -0.004   0.002  0.00  0.00     0.091 A 
ATOM      5  C5  <0> d          -1.190  -0.716   0.015  0.00  0.00     0.067 A 
ATOM      6  C4  <0> d          -1.168  -2.098   0.001  0.00  0.00     0.027 A 
ATOM      7 Cl1  <0> d          -2.706   0.129   0.042  0.00  0.00    -0.081 Cl
ATOM      8  C3  <0> d           0.040  -2.771  -0.013  0.00  0.00     0.008 A 
ATOM      9  C2  <0> d           1.228  -2.064  -0.021  0.00  0.00    -0.059 A 
ATOM     10  C1  <0> d           2.542  -2.801  -0.037  0.00  0.00     0.048 C 
ATOM     11  C7  <0> d           1.212  -0.682  -0.013  0.00  0.00     0.045 A 
ENDBRANCH   3   4
ENDBRANCH   2   3
ENDBRANCH   1   2
BRANCH   1  12
ATOM     12  C10 <0> d           2.376   4.247   0.128  0.00  0.00     0.267 C 
BRANCH  12  13
ATOM     13  N1  <0> d           2.148   5.698   0.258  0.00  0.00    -0.065 N 
ATOM     14  H22 <0> d           1.585   5.878   1.098  0.00  0.00     0.278 HD
ATOM     15  H23 <0> d           1.645   6.037  -0.570  0.00  0.00     0.278 HD
BRANCH  13  16
ATOM     16  C11 <0> d           3.434   6.411   0.373  0.00  0.00     0.115 C 
ATOM     17  C12 <0> d           4.278   6.153  -0.877  0.00  0.00     0.045 C 
ATOM     18  C13 <0> d           3.166   7.911   0.506  0.00  0.00     0.045 C 
ATOM     19  C14 <0> d           4.188   5.916   1.608  0.00  0.00     0.045 C 
ENDBRANCH  13  16
ENDBRANCH  12  13
ENDBRANCH   1  12
BRANCH   1  20
ATOM     20  O2  <0> d           0.383   3.931  -1.202  0.00  0.00    -0.392 OA
ATOM     21  H21 <0> d           0.886   3.721  -2.000  0.00  0.00     0.210 HD
ENDBRANCH   1  20
TORSDOF 7
