REMARK  5 active torsions:
REMARK  status: ('A' for Active; 'I' for Inactive)
REMARK    1  A    between atoms: C2_2  and  C3_3 
REMARK    2  A    between atoms: C2_2  and  C8_9 
REMARK    3  A    between atoms: C9_10  and  C17_18 
REMARK    4  A    between atoms: C17_18  and  C18_19 
REMARK    5  A    between atoms: C18_19  and  N2_20 
ROOT
ATOM      1  C8  <0> d          -1.062  -1.032   0.289  0.00  0.00    -0.035 A 
ATOM      2  C9  <0> d          -1.182  -1.685   1.432  0.00  0.00    -0.066 A 
ATOM      3  C10 <0> d          -2.364  -2.619   1.322  0.00  0.00     0.074 A 
ATOM      4  C11 <0> d          -2.915  -2.409  -0.068  0.00  0.00    -0.043 A 
ATOM      5  C12 <0> d          -2.109  -1.439  -0.666  0.00  0.00    -0.022 A 
ATOM      6  C13 <0> d          -2.388  -1.033  -1.973  0.00  0.00     0.012 A 
ATOM      7  C14 <0> d          -3.452  -1.588  -2.653  0.00  0.00     0.001 A 
ATOM      8  C15 <0> d          -4.246  -2.546  -2.048  0.00  0.00     0.001 A 
ATOM      9  C16 <0> d          -3.971  -2.960  -0.755  0.00  0.00     0.008 A 
ENDROOT
BRANCH   1  10
ATOM     10  C2  <0> d           0.002  -0.004   0.002  0.00  0.00     0.067 C 
ATOM     11  C1  <0> d          -0.660   1.329  -0.354  0.00  0.00     0.021 C 
BRANCH  10  12
ATOM     12  C3  <0> d           0.851  -0.468  -1.153  0.00  0.00     0.042 A 
ATOM     13  N1  <0> d           1.728  -1.436  -0.971  0.00  0.00    -0.265 NA
ATOM     14  C7  <0> d           2.488  -1.878  -1.954  0.00  0.00     0.117 A 
ATOM     15  C6  <0> d           2.398  -1.329  -3.219  0.00  0.00     0.019 A 
ATOM     16  C5  <0> d           1.491  -0.305  -3.448  0.00  0.00     0.003 A 
ATOM     17  C4  <0> d           0.705   0.129  -2.392  0.00  0.00     0.028 A 
ENDBRANCH  10  12
ENDBRANCH   1  10
BRANCH   2  18
ATOM     18  C17 <0> d          -0.293  -1.525   2.638  0.00  0.00     0.062 C 
BRANCH  18  19
ATOM     19  C18 <0> d          -0.923  -0.522   3.607  0.00  0.00     0.238 C 
BRANCH  19  20
ATOM     20  N2  <0> d          -0.056  -0.366   4.782  0.00  0.00    -0.079 N 
ATOM     21  C19 <0> d          -0.599   0.683   5.656  0.00  0.00     0.269 C 
ATOM     22  C20 <0> d           0.003  -1.636   5.520  0.00  0.00     0.269 C 
ATOM     23  H25 <0> d           0.873  -0.108   4.484  0.00  0.00     0.278 HD
ENDBRANCH  19  20
ENDBRANCH  18  19
ENDBRANCH   2  18
TORSDOF 5
