REMARK  7 active torsions:
REMARK  status: ('A' for Active; 'I' for Inactive)
REMARK       I    between atoms: N1_7  and  C12_15 
REMARK    1  A    between atoms: C12_15  and  O2_17 
REMARK    2  A    between atoms: O2_17  and  C13_18 
REMARK    3  A    between atoms: C13_18  and  C14_19 
REMARK    4  A    between atoms: C14_19  and  O3_20 
REMARK    5  A    between atoms: O3_20  and  C15_21 
REMARK    6  A    between atoms: C15_21  and  C16_22 
REMARK    7  A    between atoms: C16_22  and  N3_28 
ROOT
ATOM      1  C1  <0> d          -3.209  -1.881   0.343  0.00  0.00     0.002 A 
ATOM      2  C2  <0> d          -4.436  -1.501  -0.168  0.00  0.00     0.002 A 
ATOM      3  C3  <0> d          -4.628  -0.206  -0.610  0.00  0.00     0.021 A 
ATOM      4  C4  <0> d          -3.590   0.714  -0.542  0.00  0.00     0.033 A 
ATOM      5  C5  <0> d          -2.352   0.335  -0.032  0.00  0.00     0.063 A 
ATOM      6  C6  <0> d          -2.172  -0.971   0.412  0.00  0.00     0.031 A 
ATOM      7  N1  <0> d          -1.281   1.225   0.047  0.00  0.00    -0.239 N 
ATOM      8  C7  <0> d          -1.396   2.608   0.104  0.00  0.00     0.155 A 
ATOM      9  C8  <0> d          -2.520   3.269  -0.393  0.00  0.00     0.052 A 
ATOM     10  C9  <0> d          -2.586   4.655  -0.326  0.00  0.00     0.024 A 
ATOM     11  C10 <0> d          -1.520   5.341   0.255  0.00  0.00     0.021 A 
ATOM     12  C11 <0> d          -0.439   4.624   0.726  0.00  0.00     0.119 A 
ATOM     13  N2  <0> d          -0.404   3.309   0.642  0.00  0.00    -0.241 NA
ATOM     14  S1  <0> d          -3.854   2.365  -1.100  0.00  0.00    -0.084 SA
ATOM     15  C12 <0> d          -0.039   0.702   0.075  0.00  0.00     0.373 C 
ATOM     16  O1  <0> d           0.113  -0.503   0.082  0.00  0.00    -0.237 OA
ENDROOT
BRANCH  15  17
ATOM     17  O2  <0> d           1.034   1.516   0.089  0.00  0.00    -0.301 OA
BRANCH  17  18
ATOM     18  C13 <0> d           2.341   0.884   0.113  0.00  0.00     0.207 C 
BRANCH  18  19
ATOM     19  C14 <0> d           3.428   1.961   0.127  0.00  0.00     0.194 C 
BRANCH  19  20
ATOM     20  O3  <0> d           3.345   2.705   1.344  0.00  0.00    -0.387 OA
BRANCH  20  21
ATOM     21  C15 <0> d           4.322   3.742   1.459  0.00  0.00     0.195 C 
BRANCH  21  22
ATOM     22  C16 <0> d           4.141   4.468   2.793  0.00  0.00     0.261 C 
BRANCH  22  23
ATOM     23  N3  <0> d           4.420   3.518   3.890  0.00  0.00    -0.069 N 
ATOM     24  C17 <0> d           3.839   4.020   5.153  0.00  0.00     0.235 C 
ATOM     25  C18 <0> d           4.038   2.966   6.245  0.00  0.00     0.028 C 
ATOM     26  C19 <0> d           5.536   2.709   6.433  0.00  0.00     0.003 C 
ATOM     27  C20 <0> d           6.140   2.262   5.099  0.00  0.00     0.028 C 
ATOM     28  C21 <0> d           5.880   3.336   4.040  0.00  0.00     0.235 C 
ATOM     29  H26 <0> d           3.993   2.613   3.664  0.00  0.00     0.280 HD
ENDBRANCH  22  23
ENDBRANCH  21  22
ENDBRANCH  20  21
ENDBRANCH  19  20
ENDBRANCH  18  19
ENDBRANCH  17  18
ENDBRANCH  15  17
TORSDOF 7
