REMARK  10 active torsions:
REMARK  status: ('A' for Active; 'I' for Inactive)
REMARK    1  A    between atoms: C2_2  and  C3_3 
REMARK    2  A    between atoms: C3_3  and  C4_4 
REMARK    3  A    between atoms: C4_4  and  C5_5 
REMARK    4  A    between atoms: C5_5  and  C6_6 
REMARK    5  A    between atoms: C6_6  and  C7_7 
REMARK    6  A    between atoms: C7_7  and  C8_8 
REMARK    7  A    between atoms: C8_8  and  C9_9 
REMARK    8  A    between atoms: C9_9  and  C10_10 
REMARK    9  A    between atoms: C10_10  and  O2_12 
REMARK   10  A    between atoms: O2_12  and  C11_13 
ROOT
ATOM      1  C11 <0> d           3.747  -8.272  -6.475  0.00  0.00     0.140 C 
ATOM      2  C12 <0> d           5.262  -8.441  -6.201  0.00  0.00     0.034 C 
ATOM      3  C13 <0> d           5.620  -9.899  -6.599  0.00  0.00     0.008 C 
ATOM      4  C14 <0> d           4.522 -10.258  -7.606  0.00  0.00     0.001 C 
ATOM      5  C15 <0> d           3.265  -9.645  -6.934  0.00  0.00    -0.013 C 
ATOM      6  C16 <0> d           2.140  -9.673  -7.948  0.00  0.00     0.012 C 
ATOM      7  C17 <0> d           1.838 -11.145  -8.269  0.00  0.00     0.006 C 
ATOM      8  C18 <0> d           3.079 -11.881  -8.768  0.00  0.00    -0.002 C 
ATOM      9  C19 <0> d           4.254 -11.741  -7.788  0.00  0.00    -0.005 C 
ATOM     10  C20 <0> d           5.489 -12.421  -8.386  0.00  0.00     0.010 C 
ATOM     11  C21 <0> d           5.228 -13.924  -8.506  0.00  0.00     0.035 C 
ATOM     12  C22 <0> d           3.963 -14.134  -9.317  0.00  0.00    -0.072 C 
ATOM     13  C23 <0> d           4.005 -15.014 -10.317  0.00  0.00     0.053 C 
ATOM     14  C24 <0> d           2.801 -15.283 -11.111  0.00  0.00     0.149 C 
ATOM     15  O3  <0> d           2.864 -15.765 -12.222  0.00  0.00    -0.293 OA
ATOM     16  C25 <0> d           1.474 -14.926 -10.469  0.00  0.00     0.084 C 
ATOM     17  C26 <0> d           1.593 -13.499  -9.936  0.00  0.00     0.017 C 
ATOM     18  C27 <0> d           2.734 -13.364  -8.943  0.00  0.00     0.019 C 
ATOM     19  C28 <0> d           2.863 -10.486  -5.720  0.00  0.00     0.018 C 
ENDROOT
BRANCH   1  20
ATOM     20  O2  <0> d           3.057  -7.877  -5.260  0.00  0.00    -0.315 OA
BRANCH  20  21
ATOM     21  C10 <0> d           2.918  -6.560  -5.040  0.00  0.00     0.259 C 
ATOM     22  O1  <0> d           3.359  -5.764  -5.835  0.00  0.00    -0.265 OA
BRANCH  21  23
ATOM     23  C9  <0> d           2.213  -6.074  -3.800  0.00  0.00     0.111 C 
BRANCH  23  24
ATOM     24  C8  <0> d           2.192  -4.544  -3.791  0.00  0.00     0.010 C 
BRANCH  24  25
ATOM     25  C7  <0> d           1.476  -4.051  -2.532  0.00  0.00     0.000 C 
BRANCH  25  26
ATOM     26  C6  <0> d           1.455  -2.521  -2.524  0.00  0.00     0.000 C 
BRANCH  26  27
ATOM     27  C5  <0> d           0.739  -2.027  -1.265  0.00  0.00     0.000 C 
BRANCH  27  28
ATOM     28  C4  <0> d           0.718  -0.497  -1.257  0.00  0.00     0.000 C 
BRANCH  28  29
ATOM     29  C3  <0> d           0.002  -0.004   0.002  0.00  0.00    -0.000 C 
BRANCH  29  30
ATOM     30  C2  <0> d          -0.019   1.526   0.010  0.00  0.00    -0.005 C 
ATOM     31  C1  <0> d          -0.735   2.019   1.269  0.00  0.00     0.005 C 
ENDBRANCH  29  30
ENDBRANCH  28  29
ENDBRANCH  27  28
ENDBRANCH  26  27
ENDBRANCH  25  26
ENDBRANCH  24  25
ENDBRANCH  23  24
ENDBRANCH  21  23
ENDBRANCH  20  21
ENDBRANCH   1  20
TORSDOF 10
