REMARK  15 active torsions:
REMARK  status: ('A' for Active; 'I' for Inactive)
REMARK    1  A    between atoms: C2_2  and  O4_4 
REMARK    2  A    between atoms: O4_4  and  C5_5 
REMARK    3  A    between atoms: C5_5  and  C7_7 
REMARK    4  A    between atoms: C7_7  and  C8_8 
REMARK    5  A    between atoms: C8_8  and  C9_9 
REMARK    6  A    between atoms: C9_9  and  C10_10 
REMARK    7  A    between atoms: C11_11  and  C12_12 
REMARK    8  A    between atoms: C12_12  and  C13_13 
REMARK    9  A    between atoms: C14_14  and  O15_15 
REMARK   10  A    between atoms: C17_17  and  O18_18 
REMARK   11  A    between atoms: C19_19  and  C20_20 
REMARK   12  A    between atoms: C21_21  and  C22_22 
REMARK   13  A    between atoms: C22_22  and  C25_25 
REMARK   14  A    between atoms: C25_25  and  O26_26 
REMARK   15  A    between atoms: O26_26  and  C27_27 
ROOT
ATOM      1  C13 UNK d           0.982  -2.317   0.020  0.00  0.00     0.028 C 
ATOM      2  C14 UNK d           1.214  -3.769   0.512  0.00  0.00     0.125 C 
ATOM      3  C16 UNK d           2.601  -4.186  -0.014  0.00  0.00     0.064 C 
ATOM      4  C17 UNK d           3.216  -2.919  -0.614  0.00  0.00     0.128 C 
ATOM      5  C19 UNK d           2.006  -2.112  -1.108  0.00  0.00     0.043 C 
ENDROOT
BRANCH   5   6
ATOM      6  C20 UNK d           2.264  -0.641  -1.422  0.00  0.00    -0.017 C 
ATOM      7  C21 UNK d           3.426   0.025  -1.291  0.00  0.00     0.049 C 
BRANCH   7   8
ATOM      8  C22 UNK d           3.634   1.492  -1.618  0.00  0.00     0.283 C 
ATOM      9  F23 UNK d           4.644   1.613  -2.479  0.00  0.00    -0.199 F 
ATOM     10  F24 UNK d           2.538   2.020  -2.167  0.00  0.00    -0.199 F 
BRANCH   8  11
ATOM     11  C25 UNK d           3.978   2.290  -0.351  0.00  0.00     0.259 C 
BRANCH  11  12
ATOM     12  O26 UNK d           4.179   3.655  -0.694  0.00  0.00    -0.345 OA
BRANCH  12  13
ATOM     13  C27 UNK d           4.496   4.542   0.312  0.00  0.00     0.069 A 
ATOM     14  C32 UNK d           4.690   5.889  -0.060  0.00  0.00     0.037 A 
ATOM     15  C31 UNK d           5.016   6.864   0.902  0.00  0.00     0.003 A 
ATOM     16  C30 UNK d           5.154   6.499   2.254  0.00  0.00     0.000 A 
ATOM     17  C29 UNK d           4.964   5.160   2.640  0.00  0.00     0.003 A 
ATOM     18  C28 UNK d           4.637   4.184   1.678  0.00  0.00     0.037 A 
ENDBRANCH  12  13
ENDBRANCH  11  12
ENDBRANCH   8  11
ENDBRANCH   7   8
ENDBRANCH   5   6
BRANCH   1  19
ATOM     19  C12 UNK d          -0.470  -1.937  -0.348  0.00  0.00     0.034 C 
BRANCH  19  20
ATOM     20  C11 UNK d          -1.408  -2.003   0.844  0.00  0.00    -0.030 C 
ATOM     21  C10 UNK d          -1.870  -0.966   1.566  0.00  0.00    -0.031 C 
BRANCH  21  22
ATOM     22  C9  UNK d          -1.532   0.502   1.373  0.00  0.00     0.027 C 
BRANCH  22  23
ATOM     23  C8  UNK d          -2.728   1.299   0.838  0.00  0.00     0.013 C 
BRANCH  23  24
ATOM     24  C7  UNK d          -2.397   2.790   0.658  0.00  0.00     0.111 C 
BRANCH  24  25
ATOM     25  C5  UNK d          -3.571   3.579   0.085  0.00  0.00     0.259 C 
ATOM     26  O6  UNK d          -3.513   4.091  -1.034  0.00  0.00    -0.265 OA
BRANCH  25  27
ATOM     27  O4  UNK d          -4.617   3.644   0.933  0.00  0.00    -0.317 OA
BRANCH  27  28
ATOM     28  C2  UNK d          -5.810   4.326   0.566  0.00  0.00     0.123 C 
ATOM     29  C1  UNK d          -6.990   3.591   1.215  0.00  0.00     0.040 C 
ATOM     30  C3  UNK d          -5.725   5.792   1.014  0.00  0.00     0.040 C 
ENDBRANCH  27  28
ENDBRANCH  25  27
ENDBRANCH  24  25
ENDBRANCH  23  24
ENDBRANCH  22  23
ENDBRANCH  21  22
ENDBRANCH  19  20
ENDBRANCH   1  19
BRANCH   4  31
ATOM     31  O18 UNK d           4.122  -3.228  -1.654  0.00  0.00    -0.395 OA
ATOM     32  H34 UNK d           4.425  -2.421  -2.040  0.00  0.00     0.210 HD
ENDBRANCH   4  31
BRANCH   2  33
ATOM     33  O15 UNK d           0.249  -4.685   0.028  0.00  0.00    -0.395 OA
ATOM     34  H33 UNK d           0.460  -5.546   0.355  0.00  0.00     0.210 HD
ENDBRANCH   2  33
TORSDOF 15
