REMARK  4 active torsions:
REMARK  status: ('A' for Active; 'I' for Inactive)
REMARK    1  A    between atoms: C4_5  and  N2_7 
REMARK    2  A    between atoms: N2_7  and  S1_8 
REMARK    3  A    between atoms: S1_8  and  C5_11 
REMARK    4  A    between atoms: C8_14  and  N3_17 
ROOT
ATOM      1  S1  <0> d          -1.556   2.237   0.022  0.00  0.00     0.265 S 
ATOM      2  O2  <0> d          -1.306   3.525  -0.523  0.00  0.00    -0.200 OA
ATOM      3  O3  <0> d          -2.519   1.350  -0.529  0.00  0.00    -0.200 OA
ENDROOT
BRANCH   1   4
ATOM      4  N2  <0> d          -1.976   2.467   1.607  0.00  0.00    -0.243 N 
ATOM      5  H4  <0> d          -2.766   2.035   1.967  0.00  0.00     0.182 HD
BRANCH   4   6
ATOM      6  C4  <0> d          -1.200   3.274   2.417  0.00  0.00     0.261 A 
ATOM      7  O1  <0> d          -0.085   3.919   2.042  0.00  0.00    -0.280 OA
ATOM      8  C3  <0> d           0.377   4.600   3.114  0.00  0.00     0.077 A 
ATOM      9  C2  <0> d          -0.460   4.354   4.133  0.00  0.00     0.064 A 
ATOM     10  C11 <0> d           1.607   5.470   3.158  0.00  0.00     0.079 C 
ATOM     11  C1  <0> d          -0.339   4.899   5.533  0.00  0.00     0.073 C 
ATOM     12  N1  <0> d          -1.427   3.532   3.682  0.00  0.00    -0.210 NA
ENDBRANCH   4   6
ENDBRANCH   1   4
BRANCH   1  13
ATOM     13  C5  <0> d          -0.017   1.379   0.010  0.00  0.00     0.080 A 
ATOM     14  C10 <0> d           0.002  -0.004   0.002  0.00  0.00     0.027 A 
ATOM     15  C9  <0> d           1.206  -0.680  -0.013  0.00  0.00     0.030 A 
ATOM     16  C8  <0> d           2.400   0.031  -0.021  0.00  0.00     0.025 A 
ATOM     17  C7  <0> d           2.377   1.420  -0.013  0.00  0.00     0.030 A 
ATOM     18  C6  <0> d           1.169   2.089   0.002  0.00  0.00     0.027 A 
BRANCH  16  19
ATOM     19  N3  <0> d           3.620  -0.649  -0.036  0.00  0.00    -0.399 N 
ATOM     20  H9  <0> d           3.634  -1.619  -0.041  0.00  0.00     0.156 HD
ATOM     21  H10 <0> d           4.452  -0.152  -0.041  0.00  0.00     0.156 HD
ENDBRANCH  16  19
ENDBRANCH   1  13
TORSDOF 4
