REMARK  5 active torsions:
REMARK  status: ('A' for Active; 'I' for Inactive)
REMARK    1  A    between atoms: C3_3  and  C15_23 
REMARK    2  A    between atoms: C5_7  and  N2_10 
REMARK       I    between atoms: N2_10  and  C7_11 
REMARK    3  A    between atoms: C7_11  and  C8_13 
REMARK    4  A    between atoms: C8_13  and  C9_14 
REMARK    5  A    between atoms: C8_13  and  N3_20 
ROOT
ATOM      1  N3  <0> d          -2.031  -4.700   6.922  0.00  0.00    -0.096 NA
ATOM      2  N4  <0> d          -3.146  -4.599   6.832  0.00  0.00    -0.166 NA
ATOM      3  N5  <0> d          -4.238  -4.499   6.743  0.00  0.00     0.068 N 
ENDROOT
BRANCH   1   4
ATOM      4  C8  <0> d          -1.205  -4.809   5.717  0.00  0.00     0.270 C 
BRANCH   4   5
ATOM      5  C7  <0> d          -1.295  -3.528   4.929  0.00  0.00     0.250 C 
ATOM      6  N2  <0> d          -0.969  -3.516   3.621  0.00  0.00    -0.344 N 
ATOM      7  H8  <0> d          -0.677  -4.333   3.187  0.00  0.00     0.163 HD
ATOM      8  O2  <0> d          -1.661  -2.506   5.471  0.00  0.00    -0.271 OA
BRANCH   6   9
ATOM      9  C5  <0> d          -1.057  -2.271   2.855  0.00  0.00     0.199 C 
ATOM     10  C4  <0> d          -0.145  -2.225   1.642  0.00  0.00     0.160 C 
ATOM     11  N1  <0> d          -1.333  -1.944   0.825  0.00  0.00    -0.219 NA
ATOM     12  S1  <0> d           0.847  -0.681   1.501  0.00  0.00    -0.135 SA
ATOM     13  C3  <0> d          -1.415  -0.597   0.250  0.00  0.00     0.186 C 
ATOM     14  C6  <0> d          -2.162  -2.250   1.841  0.00  0.00     0.227 C 
ATOM     15  C2  <0> d           0.002  -0.004   0.002  0.00  0.00     0.029 C 
ATOM     16  C1  <0> d          -0.019   1.526   0.010  0.00  0.00     0.029 C 
ATOM     17  C16 <0> d           0.623  -0.546  -1.287  0.00  0.00     0.029 C 
ATOM     18  O1  <0> d          -3.358  -2.438   1.910  0.00  0.00    -0.277 OA
BRANCH  13  19
ATOM     19  C15 <0> d          -2.158  -0.665  -1.059  0.00  0.00     0.193 C 
ATOM     20  O3  <0> d          -2.389  -1.746  -1.573  0.00  0.00    -0.647 OA
ATOM     21  O4  <0> d          -2.528   0.361  -1.605  0.00  0.00    -0.647 OA
ENDBRANCH  13  19
ENDBRANCH   6   9
ENDBRANCH   4   5
BRANCH   4  22
ATOM     22  C9  <0> d           0.229  -5.056   6.111  0.00  0.00    -0.022 A 
ATOM     23  C14 <0> d           1.000  -5.948   5.388  0.00  0.00     0.010 A 
ATOM     24  C13 <0> d           2.316  -6.172   5.747  0.00  0.00     0.001 A 
ATOM     25  C12 <0> d           2.858  -5.511   6.833  0.00  0.00     0.000 A 
ATOM     26  C11 <0> d           2.085  -4.623   7.559  0.00  0.00     0.001 A 
ATOM     27  C10 <0> d           0.771  -4.396   7.198  0.00  0.00     0.010 A 
ENDBRANCH   4  22
ENDBRANCH   1   4
TORSDOF 5
