REMARK  5 active torsions:
REMARK  status: ('A' for Active; 'I' for Inactive)
REMARK    1  A    between atoms: C4_4  and  C7_7 
REMARK    2  A    between atoms: C7_7  and  N1_8 
REMARK    3  A    between atoms: N1_8  and  C8_9 
REMARK    4  A    between atoms: N1_8  and  C12_15 
REMARK    5  A    between atoms: C8_9  and  C9_10 
ROOT
ATOM      1  N1  <0> d           4.152  -0.952   1.338  0.00  0.00    -0.370 N 
ENDROOT
BRANCH   1   2
ATOM      2  C7  <0> d           3.711  -0.707  -0.038  0.00  0.00     0.162 C 
BRANCH   2   3
ATOM      3  C4  <0> d           2.396   0.029  -0.020  0.00  0.00    -0.040 A 
ATOM      4  C3  <0> d           2.377   1.411  -0.013  0.00  0.00     0.009 A 
ATOM      5  C2  <0> d           1.171   2.086   0.002  0.00  0.00     0.001 A 
ATOM      6  C1  <0> d          -0.017   1.378   0.010  0.00  0.00     0.000 A 
ATOM      7  C6  <0> d           0.002  -0.004   0.002  0.00  0.00     0.001 A 
ATOM      8  C5  <0> d           1.208  -0.679  -0.012  0.00  0.00     0.009 A 
ENDBRANCH   2   3
ENDBRANCH   1   2
BRANCH   1   9
ATOM      9  C8  <0> d           3.753  -2.182   2.027  0.00  0.00     0.199 C 
BRANCH   9  10
ATOM     10  C9  <0> d           4.780  -3.256   1.774  0.00  0.00     0.091 A 
ATOM     11  N3  <0> d           5.819  -3.435   2.555  0.00  0.00    -0.377 N 
ATOM     12  C11 <0> d           6.625  -4.555   2.043  0.00  0.00     0.140 A 
ATOM     13  H14 <0> d           6.023  -2.912   3.347  0.00  0.00     0.160 HD
ATOM     14  C10 <0> d           5.850  -5.000   0.785  0.00  0.00     0.140 A 
ATOM     15  N2  <0> d           4.704  -4.076   0.752  0.00  0.00    -0.377 N 
ATOM     16  H20 <0> d           4.004  -4.075   0.082  0.00  0.00     0.160 HD
ENDBRANCH   9  10
ENDBRANCH   1   9
BRANCH   1  17
ATOM     17  C12 <0> d           4.952  -0.014   1.993  0.00  0.00     0.030 A 
ATOM     18  C17 <0> d           5.332   1.153   1.341  0.00  0.00     0.029 A 
ATOM     19  C16 <0> d           6.119   2.082   1.993  0.00  0.00     0.002 A 
ATOM     20  C15 <0> d           6.539   1.846   3.290  0.00  0.00     0.000 A 
ATOM     21  C14 <0> d           6.168   0.683   3.939  0.00  0.00     0.002 A 
ATOM     22  C13 <0> d           5.376  -0.247   3.295  0.00  0.00     0.029 A 
ENDBRANCH   1  17
TORSDOF 5
