REMARK  4 active torsions:
REMARK  status: ('A' for Active; 'I' for Inactive)
REMARK    1  A    between atoms: C5_5  and  C12_14 
REMARK    2  A    between atoms: C6_6  and  O1_8 
REMARK    3  A    between atoms: O1_8  and  C8_9 
REMARK    4  A    between atoms: C8_9  and  C9_10 
ROOT
ATOM      1  C1  <0> d           1.229  -2.184  -0.021  0.00  0.00     0.048 C 
ATOM      2  C2  <0> d           1.208  -0.677  -0.013  0.00  0.00    -0.059 A 
ATOM      3  C3  <0> d           2.396   0.030  -0.021  0.00  0.00     0.007 A 
ATOM      4  C4  <0> d           2.380   1.413  -0.013  0.00  0.00     0.011 A 
ATOM      5  C5  <0> d           1.176   2.091   0.002  0.00  0.00    -0.021 A 
ATOM      6  C6  <0> d          -0.017   1.383   0.010  0.00  0.00     0.076 A 
ATOM      7  C7  <0> d           0.002  -0.004   0.002  0.00  0.00     0.044 A 
ENDROOT
BRANCH   6   8
ATOM      8  O1  <0> d          -1.202   2.048   0.019  0.00  0.00    -0.343 OA
BRANCH   8   9
ATOM      9  C8  <0> d          -2.391   1.255   0.020  0.00  0.00     0.251 C 
BRANCH   9  10
ATOM     10  C9  <0> d          -3.597   2.157   0.031  0.00  0.00     0.097 A 
ATOM     11  N1  <0> d          -4.874   1.680   0.034  0.00  0.00    -0.377 N 
ATOM     12  C11 <0> d          -5.797   2.828   0.045  0.00  0.00     0.140 A 
ATOM     13  H13 <0> d          -5.131   0.745   0.031  0.00  0.00     0.160 HD
ATOM     14  C10 <0> d          -4.845   4.041   0.047  0.00  0.00     0.140 A 
ATOM     15  N2  <0> d          -3.501   3.439   0.043  0.00  0.00    -0.377 N 
ATOM     16  H21 <0> d          -2.619   3.964   0.049  0.00  0.00     0.160 HD
ENDBRANCH   9  10
ENDBRANCH   8   9
ENDBRANCH   6   8
BRANCH   5  17
ATOM     17  C12 <0> d           1.160   3.598   0.010  0.00  0.00     0.013 C 
ATOM     18  C13 <0> d           1.887   4.109   1.255  0.00  0.00     0.015 C 
ATOM     19  C14 <0> d           1.863   4.122  -1.243  0.00  0.00     0.015 C 
ENDBRANCH   5  17
TORSDOF 4
