REMARK  9 active torsions:
REMARK  status: ('A' for Active; 'I' for Inactive)
REMARK    1  A    between atoms: C9_11  and  O1_12 
REMARK    2  A    between atoms: O1_12  and  C10_13 
REMARK    3  A    between atoms: C10_13  and  C11_14 
REMARK    4  A    between atoms: C11_14  and  C12_15 
REMARK    5  A    between atoms: C11_14  and  O2_20 
REMARK    6  A    between atoms: C12_15  and  N2_29 
REMARK    7  A    between atoms: C13_16  and  N2_29 
REMARK    8  A    between atoms: O2_20  and  C17_21 
REMARK    9  A    between atoms: C17_21  and  C18_23 
ROOT
ATOM      1  C11 <0> d          -0.729   1.579   1.267  0.00  0.00     0.182 C 
ENDROOT
BRANCH   1   2
ATOM      2  C10 <0> d           0.079   1.179   2.503  0.00  0.00     0.210 C 
BRANCH   2   3
ATOM      3  O1  <0> d           0.301  -0.233   2.490  0.00  0.00    -0.348 OA
BRANCH   3   4
ATOM      4  C9  <0> d           1.008  -0.756   3.526  0.00  0.00     0.081 A 
ATOM      5  C4  <0> d           1.264  -2.131   3.581  0.00  0.00     0.026 A 
ATOM      6  C3  <0> d           0.930  -3.264   2.715  0.00  0.00     0.041 A 
ATOM      7  C5  <0> d           1.997  -2.665   4.656  0.00  0.00     0.045 A 
ATOM      8  C2  <0> d           1.451  -4.361   3.285  0.00  0.00     0.006 A 
ATOM      9  C1  <0> d           1.346  -5.758   2.730  0.00  0.00     0.068 C 
ATOM     10  N1  <0> d           2.093  -4.023   4.447  0.00  0.00    -0.359 N 
ATOM     11  H1  <0> d           2.547  -4.646   5.035  0.00  0.00     0.166 HD
ATOM     12  C6  <0> d           2.459  -1.817   5.657  0.00  0.00     0.030 A 
ATOM     13  C7  <0> d           2.200  -0.466   5.591  0.00  0.00     0.005 A 
ATOM     14  C8  <0> d           1.483   0.067   4.529  0.00  0.00     0.038 A 
ENDBRANCH   3   4
ENDBRANCH   2   3
ENDBRANCH   1   2
BRANCH   1  15
ATOM     15  C12 <0> d          -0.013   1.086   0.008  0.00  0.00     0.267 C 
BRANCH  15  16
ATOM     16  N2  <0> d          -0.732   1.579  -1.182  0.00  0.00    -0.065 N 
ATOM     17  H28 <0> d          -0.746   2.605  -1.168  0.00  0.00     0.278 HD
ATOM     18  H29 <0> d          -1.695   1.223  -1.167  0.00  0.00     0.278 HD
BRANCH  16  19
ATOM     19  C13 <0> d          -0.062   1.117  -2.413  0.00  0.00     0.115 C 
ATOM     20  C14 <0> d          -0.042  -0.412  -2.445  0.00  0.00     0.045 C 
ATOM     21  C15 <0> d          -0.829   1.643  -3.628  0.00  0.00     0.045 C 
ATOM     22  C16 <0> d           1.373   1.647  -2.447  0.00  0.00     0.045 C 
ENDBRANCH  16  19
ENDBRANCH  15  16
ENDBRANCH   1  15
BRANCH   1  23
ATOM     23  O2  <0> d          -2.050   0.982   1.337  0.00  0.00    -0.308 OA
BRANCH  23  24
ATOM     24  C17 <0> d          -3.058   1.655   0.748  0.00  0.00     0.293 C 
ATOM     25  O3  <0> d          -2.838   2.711   0.191  0.00  0.00    -0.259 OA
BRANCH  24  26
ATOM     26  C18 <0> d          -4.430   1.107   0.780  0.00  0.00     0.039 A 
ATOM     27  C23 <0> d          -5.476   1.802   0.171  0.00  0.00     0.017 A 
ATOM     28  C22 <0> d          -6.755   1.285   0.204  0.00  0.00     0.001 A 
ATOM     29  C21 <0> d          -7.001   0.081   0.839  0.00  0.00     0.000 A 
ATOM     30  C20 <0> d          -5.969  -0.613   1.446  0.00  0.00     0.001 A 
ATOM     31  C19 <0> d          -4.684  -0.110   1.415  0.00  0.00     0.017 A 
ENDBRANCH  24  26
ENDBRANCH  23  24
ENDBRANCH   1  23
TORSDOF 9
