REMARK  13 active torsions:
REMARK  status: ('A' for Active; 'I' for Inactive)
REMARK    1  A    between atoms: C8_8  and  C9_9 
REMARK    2  A    between atoms: C11_11  and  N12_12 
REMARK    3  A    between atoms: N12_12  and  C13_13 
REMARK    4  A    between atoms: C15_15  and  S17_17 
REMARK    5  A    between atoms: S17_17  and  C18_18 
REMARK    6  A    between atoms: C18_18  and  C19_19 
REMARK    7  A    between atoms: N25_25  and  C26_26 
REMARK    8  A    between atoms: C28_28  and  O33_33 
REMARK    9  A    between atoms: C29_29  and  O30_30 
REMARK   10  A    between atoms: C31_31  and  O32_32 
REMARK   11  A    between atoms: O33_33  and  C34_34 
REMARK   12  A    between atoms: C34_34  and  C35_35 
REMARK   13  A    between atoms: C35_35  and  O36_36 
ROOT
ATOM      1  C13 UNK d           3.546  -0.339   1.598  0.00  0.00     0.161 A 
ATOM      2  N14 UNK d           3.653   1.011   1.556  0.00  0.00    -0.203 NA
ATOM      3  C15 UNK d           2.548   1.756   1.419  0.00  0.00     0.192 A 
ATOM      4  N16 UNK d           1.274   1.367   1.316  0.00  0.00    -0.201 NA
ATOM      5  C21 UNK d           2.245  -0.909   1.504  0.00  0.00     0.173 A 
ATOM      6  C22 UNK d           1.180   0.007   1.365  0.00  0.00     0.185 A 
ATOM      7  N23 UNK d           1.743  -2.202   1.518  0.00  0.00    -0.124 NA
ATOM      8  N24 UNK d           0.452  -2.139   1.380  0.00  0.00    -0.063 NA
ATOM      9  N25 UNK d           0.082  -0.830   1.288  0.00  0.00    -0.224 N 
ENDROOT
BRANCH   9  10
ATOM     10  C26 UNK d          -1.327  -0.502   1.104  0.00  0.00     0.147 C 
ATOM     11  C31 UNK d          -1.881   0.453   2.173  0.00  0.00     0.174 C 
ATOM     12  C29 UNK d          -3.044   1.170   1.479  0.00  0.00     0.178 C 
ATOM     13  C28 UNK d          -2.534   1.384   0.046  0.00  0.00     0.154 C 
ATOM     14  C27 UNK d          -1.614   0.180  -0.248  0.00  0.00     0.065 C 
BRANCH  11  15
ATOM     15  O32 UNK d          -2.257  -0.198   3.371  0.00  0.00    -0.391 OA
ATOM     16  H39 UNK d          -2.511   0.457   4.003  0.00  0.00     0.210 HD
ENDBRANCH  11  15
BRANCH  12  17
ATOM     17  O30 UNK d          -4.196   0.348   1.437  0.00  0.00    -0.390 OA
ATOM     18  H38 UNK d          -4.360   0.027   2.312  0.00  0.00     0.210 HD
ENDBRANCH  12  17
BRANCH  13  19
ATOM     19  O33 UNK d          -1.770   2.583   0.034  0.00  0.00    -0.381 OA
BRANCH  19  20
ATOM     20  C34 UNK d          -1.603   3.141  -1.261  0.00  0.00     0.194 C 
BRANCH  20  21
ATOM     21  C35 UNK d          -0.550   4.255  -1.199  0.00  0.00     0.190 C 
BRANCH  21  22
ATOM     22  O36 UNK d           0.740   3.712  -1.390  0.00  0.00    -0.399 OA
ATOM     23  H40 UNK d           1.375   4.404  -1.287  0.00  0.00     0.209 HD
ENDBRANCH  21  22
ENDBRANCH  20  21
ENDBRANCH  19  20
ENDBRANCH  13  19
ENDBRANCH   9  10
BRANCH   3  24
ATOM     24  S17 UNK d           2.789   3.518   1.405  0.00  0.00    -0.090 SA
BRANCH  24  25
ATOM     25  C18 UNK d           4.150   3.670   0.213  0.00  0.00     0.082 C 
BRANCH  25  26
ATOM     26  C19 UNK d           4.438   5.138  -0.123  0.00  0.00     0.006 C 
ATOM     27  C20 UNK d           5.575   5.295  -1.139  0.00  0.00     0.006 C 
ENDBRANCH  25  26
ENDBRANCH  24  25
ENDBRANCH   3  24
BRANCH   1  28
ATOM     28  N12 UNK d           4.750  -1.045   1.722  0.00  0.00    -0.367 N 
ATOM     29  H37 UNK d           5.611  -0.518   1.712  0.00  0.00     0.161 HD
BRANCH  28  30
ATOM     30  C11 UNK d           4.798  -2.444   1.333  0.00  0.00     0.092 A 
ATOM     31  C9  UNK d           4.682  -2.819  -0.128  0.00  0.00     0.043 A 
ATOM     32  C10 UNK d           6.009  -2.958   0.588  0.00  0.00     0.037 A 
BRANCH  31  33
ATOM     33  C8  UNK d           3.872  -4.009  -0.564  0.00  0.00    -0.049 A 
ATOM     34  C1  UNK d           3.107  -3.935  -1.749  0.00  0.00     0.011 A 
ATOM     35  C2  UNK d           2.327  -5.029  -2.172  0.00  0.00     0.046 A 
ATOM     36  C3  UNK d           2.303  -6.213  -1.412  0.00  0.00     0.154 A 
ATOM     37  F4  UNK d           1.553  -7.264  -1.819  0.00  0.00    -0.203 F 
ATOM     38  C5  UNK d           3.060  -6.300  -0.228  0.00  0.00     0.155 A 
ATOM     39  F6  UNK d           3.039  -7.435   0.509  0.00  0.00    -0.203 F 
ATOM     40  C7  UNK d           3.838  -5.204   0.192  0.00  0.00     0.053 A 
ENDBRANCH  31  33
ENDBRANCH  28  30
ENDBRANCH   1  28
TORSDOF 13
