REMARK  8 active torsions:
REMARK  status: ('A' for Active; 'I' for Inactive)
REMARK    1  A    between atoms: C2_2  and  O1_3 
REMARK    2  A    between atoms: O1_3  and  C3_4 
REMARK    3  A    between atoms: C5_6  and  N3_28 
REMARK    4  A    between atoms: C6_7  and  N2_25 
REMARK    5  A    between atoms: C8_9  and  C9_10 
REMARK       I    between atoms: C9_10  and  N1_12 
REMARK    6  A    between atoms: N1_12  and  C10_13 
REMARK    7  A    between atoms: C15_18  and  C16_19 
REMARK    8  A    between atoms: C15_18  and  N4_32 
ROOT
ATOM      1  C9  <0> d          -5.114   1.258   5.469  0.00  0.00     0.254 C 
ATOM      2  O2  <0> d          -5.522   0.133   5.252  0.00  0.00    -0.268 OA
ATOM      3  N1  <0> d          -4.087   1.753   4.750  0.00  0.00    -0.352 N 
ATOM      4  H9  <0> d          -3.762   2.650   4.922  0.00  0.00     0.163 HD
ENDROOT
BRANCH   1   5
ATOM      5  C8  <0> d          -5.742   2.080   6.517  0.00  0.00     0.067 A 
ATOM      6  C3  <0> d          -6.811   1.567   7.267  0.00  0.00     0.086 A 
ATOM      7  C4  <0> d          -7.395   2.347   8.250  0.00  0.00     0.069 A 
ATOM      8  C5  <0> d          -6.919   3.631   8.488  0.00  0.00     0.061 A 
ATOM      9  C6  <0> d          -5.857   4.135   7.740  0.00  0.00     0.130 A 
ATOM     10  C7  <0> d          -5.271   3.372   6.772  0.00  0.00     0.058 A 
BRANCH   6  11
ATOM     11  O1  <0> d          -7.271   0.312   7.031  0.00  0.00    -0.350 OA
BRANCH  11  12
ATOM     12  C2  <0> d          -8.362  -0.141   7.834  0.00  0.00     0.171 C 
ATOM     13  C1  <0> d          -8.739  -1.567   7.425  0.00  0.00     0.034 C 
ENDBRANCH  11  12
ENDBRANCH   6  11
BRANCH   8  14
ATOM     14  N3  <0> d          -7.506   4.415   9.475  0.00  0.00    -0.397 N 
ATOM     15  H29 <0> d          -8.202   4.044  10.039  0.00  0.00     0.156 HD
ATOM     16  H30 <0> d          -7.218   5.333   9.600  0.00  0.00     0.156 HD
ENDBRANCH   8  14
BRANCH   9  17
ATOM     17  N2  <0> d          -5.357   5.504   8.001  0.00  0.00    -0.113 N 
ATOM     18  O3  <0> d          -6.141   6.398   8.267  0.00  0.00    -0.532 OA
ATOM     19  O4  <0> d          -4.163   5.737   7.948  0.00  0.00    -0.532 OA
ENDBRANCH   9  17
ENDBRANCH   1   5
BRANCH   3  20
ATOM     20  C10 <0> d          -3.462   0.936   3.707  0.00  0.00     0.087 C 
ATOM     21  C14 <0> d          -4.247   1.084   2.400  0.00  0.00     0.053 C 
ATOM     22  C13 <0> d          -3.554   0.275   1.300  0.00  0.00     0.237 C 
ATOM     23  N4  <0> d          -2.181   0.791   1.118  0.00  0.00    -0.070 N 
ATOM     24  C12 <0> d          -1.393   0.586   2.353  0.00  0.00     0.237 C 
ATOM     25  H31 <0> d          -2.227   1.797   0.916  0.00  0.00     0.279 HD
ATOM     26  C11 <0> d          -2.022   1.404   3.484  0.00  0.00     0.053 C 
BRANCH  23  27
ATOM     27  C15 <0> d          -1.530   0.103  -0.015  0.00  0.00     0.239 C 
BRANCH  27  28
ATOM     28  C16 <0> d          -2.421   0.227  -1.252  0.00  0.00     0.015 C 
ATOM     29  C21 <0> d          -1.759  -0.481  -2.437  0.00  0.00     0.033 C 
ATOM     30  C20 <0> d          -2.482  -0.147  -3.708  0.00  0.00    -0.030 C 
ATOM     31  C19 <0> d          -3.295   0.852  -3.840  0.00  0.00    -0.031 C 
ATOM     32  C18 <0> d          -3.635   1.810  -2.736  0.00  0.00     0.027 C 
ATOM     33  C17 <0> d          -2.602   1.707  -1.612  0.00  0.00     0.010 C 
ENDBRANCH  27  28
ENDBRANCH  23  27
ENDBRANCH   3  20
TORSDOF 8
