REMARK  10 active torsions:
REMARK  status: ('A' for Active; 'I' for Inactive)
REMARK    1  A    between atoms: C2_2  and  O2_4 
REMARK    2  A    between atoms: O2_4  and  C3_5 
REMARK    3  A    between atoms: C3_5  and  C4_6 
REMARK       I    between atoms: C4_6  and  N1_8 
REMARK    4  A    between atoms: N1_8  and  C5_9 
REMARK    5  A    between atoms: C5_9  and  C6_10 
REMARK    6  A    between atoms: C6_10  and  C7_11 
REMARK    7  A    between atoms: C7_11  and  O4_12 
REMARK    8  A    between atoms: O4_12  and  C8_13 
REMARK    9  A    between atoms: C12_17  and  C14_19 
REMARK   10  A    between atoms: C14_19  and  N2_20 
ROOT
ATOM      1  C8  <0> d           0.060  -8.758  -6.492  0.00  0.00     0.069 A 
ATOM      2  C9  <0> d           0.045  -8.059  -7.691  0.00  0.00     0.037 A 
ATOM      3  C10 <0> d           0.043  -8.745  -8.889  0.00  0.00     0.003 A 
ATOM      4  C11 <0> d           0.057 -10.128  -8.896  0.00  0.00     0.009 A 
ATOM      5  C12 <0> d           0.071 -10.827  -7.703  0.00  0.00    -0.030 A 
ATOM      6  C13 <0> d           0.079 -10.145  -6.501  0.00  0.00     0.045 A 
ENDROOT
BRANCH   1   7
ATOM      7  O4  <0> d           0.062  -8.085  -5.312  0.00  0.00    -0.351 OA
BRANCH   7   8
ATOM      8  C7  <0> d           0.042  -6.658  -5.379  0.00  0.00     0.177 C 
BRANCH   8   9
ATOM      9  C6  <0> d           0.047  -6.080  -3.962  0.00  0.00     0.046 C 
BRANCH   9  10
ATOM     10  C5  <0> d           0.026  -4.552  -4.034  0.00  0.00     0.125 C 
BRANCH  10  11
ATOM     11  N1  <0> d           0.031  -4.000  -2.677  0.00  0.00    -0.359 N 
ATOM     12  C4  <0> d           0.015  -2.665  -2.493  0.00  0.00     0.241 C 
ATOM     13  O3  <0> d          -0.004  -1.921  -3.450  0.00  0.00    -0.271 OA
ATOM     14  H6  <0> d           0.046  -4.595  -1.911  0.00  0.00     0.162 HD
BRANCH  12  15
ATOM     15  C3  <0> d           0.020  -2.096  -1.097  0.00  0.00     0.281 C 
BRANCH  15  16
ATOM     16  O2  <0> d           0.000  -0.669  -1.164  0.00  0.00    -0.312 OA
BRANCH  16  17
ATOM     17  C2  <0> d           0.002  -0.004   0.002  0.00  0.00     0.255 C 
ATOM     18  C1  <0> d          -0.018   1.503   0.010  0.00  0.00     0.126 C 
ATOM     19  O1  <0> d           0.020  -0.614   1.045  0.00  0.00    -0.266 OA
ENDBRANCH  16  17
ENDBRANCH  15  16
ENDBRANCH  12  15
ENDBRANCH  10  11
ENDBRANCH   9  10
ENDBRANCH   8   9
ENDBRANCH   7   8
ENDBRANCH   1   7
BRANCH   5  20
ATOM     20  C14 <0> d           0.085 -12.334  -7.713  0.00  0.00     0.273 C 
BRANCH  20  21
ATOM     21  N2  <0> d           1.475 -12.810  -7.726  0.00  0.00    -0.067 N 
ATOM     22  C19 <0> d           1.490 -14.274  -7.616  0.00  0.00     0.235 C 
ATOM     23  C18 <0> d           2.936 -14.770  -7.547  0.00  0.00     0.028 C 
ATOM     24  C17 <0> d           3.676 -14.345  -8.818  0.00  0.00     0.003 C 
ATOM     25  C16 <0> d           3.591 -12.822  -8.962  0.00  0.00     0.028 C 
ATOM     26  C15 <0> d           2.120 -12.399  -8.979  0.00  0.00     0.235 C 
ATOM     27  H29 <0> d           1.974 -12.410  -6.946  0.00  0.00     0.280 HD
ENDBRANCH  20  21
ENDBRANCH   5  20
TORSDOF 10
