REMARK  6 active torsions:
REMARK  status: ('A' for Active; 'I' for Inactive)
REMARK    1  A    between atoms: C2_2  and  C3_3 
REMARK    2  A    between atoms: C6_6  and  O4_27 
REMARK    3  A    between atoms: C7_7  and  O3_25 
REMARK    4  A    between atoms: C10_10  and  C13_15 
REMARK    5  A    between atoms: C16_18  and  O2_23 
REMARK    6  A    between atoms: C17_19  and  O1_21 
ROOT
ATOM      1  C3  <0> d           0.790  -0.375  -1.314  0.00  0.00     0.068 A 
ATOM      2  C4  <0> d           0.513  -1.826  -1.639  0.00  0.00    -0.033 A 
ATOM      3  C5  <0> d          -0.814  -2.092  -1.858  0.00  0.00     0.048 A 
ATOM      4  C6  <0> d          -1.211  -3.389  -2.168  0.00  0.00     0.102 A 
ATOM      5  C7  <0> d          -0.266  -4.411  -2.254  0.00  0.00     0.102 A 
ATOM      6  C8  <0> d           1.073  -4.145  -2.033  0.00  0.00     0.054 A 
ATOM      7  C9  <0> d           1.470  -2.845  -1.724  0.00  0.00     0.005 A 
ATOM      8  C10 <0> d           2.926  -2.717  -1.516  0.00  0.00     0.100 A 
ATOM      9  N1  <0> d           3.620  -1.644  -1.216  0.00  0.00    -0.149 NA
ATOM     10  N2  <0> d           3.295  -0.425  -1.012  0.00  0.00    -0.158 NA
ATOM     11  C11 <0> d           2.164   0.200  -1.027  0.00  0.00     0.039 A 
ATOM     12  C12 <0> d           2.217   1.675  -0.724  0.00  0.00     0.068 C 
ENDROOT
BRANCH   8  13
ATOM     13  C13 <0> d           3.706  -3.962  -1.668  0.00  0.00    -0.002 A 
ATOM     14  C18 <0> d           3.923  -4.791  -0.565  0.00  0.00     0.053 A 
ATOM     15  C17 <0> d           4.648  -5.958  -0.713  0.00  0.00     0.102 A 
ATOM     16  C16 <0> d           5.172  -6.299  -1.959  0.00  0.00     0.101 A 
ATOM     17  C15 <0> d           4.961  -5.472  -3.054  0.00  0.00     0.040 A 
ATOM     18  C14 <0> d           4.234  -4.310  -2.914  0.00  0.00     0.017 A 
BRANCH  15  19
ATOM     19  O1  <0> d           4.856  -6.771   0.357  0.00  0.00    -0.353 OA
ATOM     20  C19 <0> d           4.290  -6.359   1.603  0.00  0.00     0.210 C 
ENDBRANCH  15  19
BRANCH  16  21
ATOM     21  O2  <0> d           5.889  -7.444  -2.102  0.00  0.00    -0.353 OA
ATOM     22  C20 <0> d           6.397  -7.733  -3.406  0.00  0.00     0.210 C 
ENDBRANCH  16  21
ENDBRANCH   8  13
BRANCH   1  23
ATOM     23  C2  <0> d          -0.081  -0.033  -0.103  0.00  0.00     0.011 C 
ATOM     24  C1  <0> d           0.452  -0.763   1.131  0.00  0.00     0.006 C 
ENDBRANCH   1  23
BRANCH   5  25
ATOM     25  O3  <0> d          -0.664  -5.676  -2.557  0.00  0.00    -0.353 OA
ATOM     26  C21 <0> d           0.354  -6.676  -2.630  0.00  0.00     0.210 C 
ENDBRANCH   5  25
BRANCH   4  27
ATOM     27  O4  <0> d          -2.524  -3.661  -2.386  0.00  0.00    -0.353 OA
ATOM     28  C22 <0> d          -3.439  -2.569  -2.281  0.00  0.00     0.210 C 
ENDBRANCH   4  27
TORSDOF 6
