REMARK  5 active torsions:
REMARK  status: ('A' for Active; 'I' for Inactive)
REMARK    1  A    between atoms: C3_3  and  C15_23 
REMARK    2  A    between atoms: C5_7  and  N2_10 
REMARK       I    between atoms: N2_10  and  C7_11 
REMARK    3  A    between atoms: C7_11  and  C8_13 
REMARK    4  A    between atoms: C8_13  and  C9_14 
REMARK    5  A    between atoms: C8_13  and  N3_20 
ROOT
ATOM      1  N3  <0> d           2.662  -8.265  -0.161  0.00  0.00    -0.096 NA
ATOM      2  N4  <0> d           2.151  -8.460  -1.143  0.00  0.00    -0.166 NA
ATOM      3  N5  <0> d           1.651  -8.651  -2.104  0.00  0.00     0.068 N 
ENDROOT
BRANCH   1   4
ATOM      4  C8  <0> d           3.315  -6.977   0.082  0.00  0.00     0.270 C 
BRANCH   4   5
ATOM      5  C7  <0> d           2.279  -5.883   0.097  0.00  0.00     0.250 C 
ATOM      6  N2  <0> d           2.648  -4.602  -0.101  0.00  0.00    -0.344 N 
ATOM      7  H8  <0> d           3.581  -4.384  -0.252  0.00  0.00     0.163 HD
ATOM      8  O2  <0> d           1.112  -6.155   0.286  0.00  0.00    -0.271 OA
BRANCH   6   9
ATOM      9  C5  <0> d           1.640  -3.539  -0.086  0.00  0.00     0.199 A 
ATOM     10  C4  <0> d           2.194  -2.168   0.278  0.00  0.00     0.160 A 
ATOM     11  N1  <0> d           1.818  -1.719  -1.069  0.00  0.00    -0.219 NA
ATOM     12  S1  <0> d           1.074  -1.198   1.375  0.00  0.00    -0.135 SA
ATOM     13  C3  <0> d           0.925  -0.560  -1.125  0.00  0.00     0.186 C 
ATOM     14  C6  <0> d           1.375  -2.930  -1.430  0.00  0.00     0.227 A 
ATOM     15  C2  <0> d          -0.086  -0.609   0.061  0.00  0.00     0.029 C 
ATOM     16  C1  <0> d          -0.645   0.779   0.383  0.00  0.00     0.029 C 
ATOM     17  C16 <0> d          -1.209  -1.617  -0.195  0.00  0.00     0.029 C 
ATOM     18  O1  <0> d           0.924  -3.373  -2.466  0.00  0.00    -0.277 OA
BRANCH  13  19
ATOM     19  C15 <0> d           0.168  -0.576  -2.428  0.00  0.00     0.193 C 
ATOM     20  O3  <0> d          -0.765   0.190  -2.601  0.00  0.00    -0.647 OA
ATOM     21  O4  <0> d           0.489  -1.354  -3.310  0.00  0.00    -0.647 OA
ENDBRANCH  13  19
ENDBRANCH   6   9
ENDBRANCH   4   5
BRANCH   4  22
ATOM     22  C9  <0> d           4.023  -7.016   1.412  0.00  0.00    -0.022 A 
ATOM     23  C14 <0> d           5.266  -6.427   1.550  0.00  0.00     0.010 A 
ATOM     24  C13 <0> d           5.914  -6.459   2.771  0.00  0.00     0.001 A 
ATOM     25  C12 <0> d           5.322  -7.088   3.851  0.00  0.00     0.000 A 
ATOM     26  C11 <0> d           4.082  -7.681   3.711  0.00  0.00     0.001 A 
ATOM     27  C10 <0> d           3.432  -7.645   2.492  0.00  0.00     0.010 A 
ENDBRANCH   4  22
ENDBRANCH   1   4
TORSDOF 5
