REMARK  8 active torsions:
REMARK  status: ('A' for Active; 'I' for Inactive)
REMARK    1  A    between atoms: C2_2  and  O1_3 
REMARK    2  A    between atoms: O1_3  and  C3_4 
REMARK    3  A    between atoms: C5_6  and  N3_28 
REMARK    4  A    between atoms: C6_7  and  N2_25 
REMARK    5  A    between atoms: C8_9  and  C9_10 
REMARK       I    between atoms: C9_10  and  N1_12 
REMARK    6  A    between atoms: N1_12  and  C10_13 
REMARK    7  A    between atoms: C15_18  and  C16_19 
REMARK    8  A    between atoms: C15_18  and  N4_32 
ROOT
ATOM      1  C9  <0> d           1.613   2.612  -0.740  0.00  0.00     0.254 C 
ATOM      2  O2  <0> d           2.688   2.166  -1.093  0.00  0.00    -0.268 OA
ATOM      3  N1  <0> d           0.712   1.807  -0.144  0.00  0.00    -0.352 N 
ATOM      4  H9  <0> d          -0.147   2.162   0.134  0.00  0.00     0.163 HD
ENDROOT
BRANCH   1   5
ATOM      5  C8  <0> d           1.297   4.033  -0.963  0.00  0.00     0.067 A 
ATOM      6  C3  <0> d           2.234   4.874  -1.583  0.00  0.00     0.086 A 
ATOM      7  C4  <0> d           1.927   6.208  -1.788  0.00  0.00     0.069 A 
ATOM      8  C5  <0> d           0.696   6.705  -1.379  0.00  0.00     0.061 A 
ATOM      9  C6  <0> d          -0.231   5.866  -0.764  0.00  0.00     0.130 A 
ATOM     10  C7  <0> d           0.060   4.548  -0.562  0.00  0.00     0.058 A 
BRANCH   6  11
ATOM     11  O1  <0> d           3.434   4.382  -1.980  0.00  0.00    -0.350 OA
BRANCH  11  12
ATOM     12  C2  <0> d           4.337   5.298  -2.604  0.00  0.00     0.171 C 
ATOM     13  C1  <0> d           5.627   4.566  -2.980  0.00  0.00     0.034 C 
ENDBRANCH  11  12
ENDBRANCH   6  11
BRANCH   8  14
ATOM     14  N3  <0> d           0.388   8.046  -1.585  0.00  0.00    -0.397 N 
ATOM     15  H29 <0> d           1.071   8.658  -1.900  0.00  0.00     0.156 HD
ATOM     16  H30 <0> d          -0.510   8.369  -1.413  0.00  0.00     0.156 HD
ENDBRANCH   8  14
BRANCH   9  17
ATOM     17  N2  <0> d          -1.540   6.406  -0.332  0.00  0.00    -0.113 N 
ATOM     18  O3  <0> d          -1.610   7.525   0.143  0.00  0.00    -0.532 OA
ATOM     19  O4  <0> d          -2.546   5.731  -0.452  0.00  0.00    -0.532 OA
ENDBRANCH   9  17
ENDBRANCH   1   5
BRANCH   3  20
ATOM     20  C10 <0> d           1.026   0.394   0.078  0.00  0.00     0.087 C 
ATOM     21  C14 <0> d           0.198  -0.137   1.252  0.00  0.00     0.053 C 
ATOM     22  C13 <0> d           0.485  -1.628   1.440  0.00  0.00     0.237 C 
ATOM     23  N4  <0> d           0.114  -2.348   0.203  0.00  0.00    -0.070 N 
ATOM     24  C12 <0> d           0.959  -1.893  -0.922  0.00  0.00     0.237 C 
ATOM     25  H31 <0> d          -0.868  -2.148  -0.017  0.00  0.00     0.279 HD
ATOM     26  C11 <0> d           0.688  -0.410  -1.181  0.00  0.00     0.053 C 
BRANCH  23  27
ATOM     27  C15 <0> d           0.275  -3.804   0.399  0.00  0.00     0.239 C 
BRANCH  27  28
ATOM     28  C16 <0> d          -0.917  -4.323   1.205  0.00  0.00     0.015 C 
ATOM     29  C21 <0> d          -2.207  -4.112   0.409  0.00  0.00     0.033 C 
ATOM     30  C20 <0> d          -3.341  -4.853   1.059  0.00  0.00    -0.030 C 
ATOM     31  C19 <0> d          -3.187  -5.795   1.932  0.00  0.00    -0.031 C 
ATOM     32  C18 <0> d          -1.853  -6.277   2.423  0.00  0.00     0.027 C 
ATOM     33  C17 <0> d          -0.745  -5.824   1.470  0.00  0.00     0.010 C 
ENDBRANCH  27  28
ENDBRANCH  23  27
ENDBRANCH   3  20
TORSDOF 8
