@<TRIPOS>MOLECULE
ZINC08438922
   56    58     0     0     0
SMALL
USER_CHARGES
ethyl 4-[5-[[4-(cyanomethoxy)-3-ethoxy-phenyl]methylene]-3-methyl-4-oxo-thiazolidin-2-ylidene]aminobenzoate
@<TRIPOS>ATOM
      1 C1         -5.7528    3.2657    3.5042 C.3       1 <0>        -0.1538
      2 C2         -4.7317    4.2337    2.9031 C.3       1 <0>         0.0506
      3 O1         -3.5748    3.5066    2.4850 O.3       1 <0>        -0.3007
      4 C3         -2.5641    4.2235    1.9247 C.ar      1 <0>         0.1119
      5 C4         -2.6829    5.5925    1.7869 C.ar      1 <0>        -0.1357
      6 C5         -1.6426    6.3265    1.2039 C.ar      1 <0>        -0.0858
      7 C6         -0.4855    5.6685    0.7694 C.ar      1 <0>        -0.0791
      8 C7         -0.3738    4.3034    0.9163 C.ar      1 <0>        -0.1683
      9 C8         -1.4061    3.5768    1.4946 C.ar      1 <0>         0.1291
     10 O2         -1.2898    2.2307    1.6367 O.3       1 <0>        -0.2916
     11 C9         -0.0798    1.6312    1.1694 C.3       1 <0>         0.1564
     12 C10        -0.1297    0.1787    1.4031 C.1       1 <0>         0.2050
     13 N1         -0.1683   -0.9422    1.5835 N.1       1 <0>        -0.3857
     14 C11        -1.7650    7.7814    1.0483 C.2       1 <0>         0.0746
     15 C12        -0.8461    8.4659    0.3202 C.2       1 <0>        -0.2305
     16 C13        -0.6616    9.9226    0.1766 C.2       1 <0>         0.5519
     17 O3         -1.3843   10.7153    0.7518 O.2       1 <0>        -0.4813
     18 N2          0.3272   10.3276   -0.6023 N.am      1 <0>        -0.5746
     19 C14         1.1294    9.4164   -1.2502 C.2       1 <0>         0.3707
     20 N3          2.1436    9.6471   -2.0580 N.2       1 <0>        -0.4668
     21 C15         2.6150   10.9156   -2.2143 C.ar      1 <0>         0.1405
     22 C16         2.5312   11.5451   -3.4627 C.ar      1 <0>        -0.1391
     23 C17         2.9979   12.8173   -3.6175 C.ar      1 <0>        -0.0390
     24 C18         3.5714   13.4898   -2.5314 C.ar      1 <0>        -0.1425
     25 C19         3.6605   12.8585   -1.2847 C.ar      1 <0>        -0.0333
     26 C20         3.1887   11.5885   -1.1280 C.ar      1 <0>        -0.1592
     27 C21         4.0812   14.8603   -2.7004 C.2       1 <0>         0.5108
     28 O4          4.5794   15.4439   -1.7578 O.2       1 <0>        -0.5058
     29 O5          3.9955   15.4681   -3.9005 O.3       1 <0>        -0.3544
     30 C22         4.5184   16.8194   -3.9939 C.3       1 <0>         0.0631
     31 C23         4.3345   17.3400   -5.4208 C.3       1 <0>        -0.1538
     32 S1          0.4609    7.8452   -0.7286 S.3       1 <0>         0.0993
     33 C24         0.5670   11.7616   -0.7826 C.3       1 <0>         0.0487
     34 H1         -6.0387    2.5276    2.7549 H         1 <0>         0.0678
     35 H2         -5.3118    2.7595    4.3630 H         1 <0>         0.0678
     36 H3         -6.6352    3.8203    3.8232 H         1 <0>         0.0809
     37 H4         -4.4458    4.9718    3.6525 H         1 <0>         0.0655
     38 H5         -5.1727    4.7398    2.0444 H         1 <0>         0.0655
     39 H6         -3.5776    6.0950    2.1237 H         1 <0>         0.1485
     40 H7          0.3190    6.2310    0.3189 H         1 <0>         0.1359
     41 H8          0.5189    3.7968    0.5806 H         1 <0>         0.1506
     42 H9          0.7677    2.0567    1.7069 H         1 <0>         0.1148
     43 H10         0.0328    1.8239    0.1025 H         1 <0>         0.1151
     44 H11        -2.5861    8.3070    1.5130 H         1 <0>         0.1631
     45 H12         2.0929   11.0249   -4.3015 H         1 <0>         0.1397
     46 H13         2.9293   13.3044   -4.5790 H         1 <0>         0.1455
     47 H14         4.1026   13.3774   -0.4470 H         1 <0>         0.1435
     48 H15         3.2577   11.1015   -0.1665 H         1 <0>         0.1335
     49 H16         3.9815   17.4656   -3.2993 H         1 <0>         0.0718
     50 H17         5.5789   16.8169   -3.7420 H         1 <0>         0.0719
     51 H18         4.8713   16.6939   -6.1153 H         1 <0>         0.0677
     52 H19         3.2740   17.3426   -5.6727 H         1 <0>         0.0675
     53 H20         4.7270   18.3545   -5.4909 H         1 <0>         0.0820
     54 H21         0.8953   11.9493   -1.8049 H         1 <0>         0.0899
     55 H22        -0.3545   12.3111   -0.5902 H         1 <0>         0.0961
     56 H23         1.3386   12.0912   -0.0869 H         1 <0>         0.0838
@<TRIPOS>BOND
     1    1    2 1
     2    1   34 1
     3    1   35 1
     4    1   36 1
     5    2    3 1
     6    2   37 1
     7    2   38 1
     8    3    4 1
     9    4    9 ar
    10    4    5 ar
    11    5    6 ar
    12    5   39 1
    13    6    7 ar
    14    6   14 1
    15    7    8 ar
    16    7   40 1
    17    8    9 ar
    18    8   41 1
    19    9   10 1
    20   10   11 1
    21   11   12 1
    22   11   42 1
    23   11   43 1
    24   12   13 3
    25   14   15 2
    26   14   44 1
    27   15   32 1
    28   15   16 1
    29   16   17 2
    30   16   18 am
    31   18   19 1
    32   18   33 1
    33   19   20 2
    34   19   32 1
    35   20   21 1
    36   21   26 ar
    37   21   22 ar
    38   22   23 ar
    39   22   45 1
    40   23   24 ar
    41   23   46 1
    42   24   25 ar
    43   24   27 1
    44   25   26 ar
    45   25   47 1
    46   26   48 1
    47   27   28 2
    48   27   29 1
    49   29   30 1
    50   30   31 1
    51   30   49 1
    52   30   50 1
    53   31   51 1
    54   31   52 1
    55   31   53 1
    56   33   54 1
    57   33   55 1
    58   33   56 1
