REMARK  10 active torsions:
REMARK  status: ('A' for Active; 'I' for Inactive)
REMARK    1  A    between atoms: C2_2  and  C3_3 
REMARK    2  A    between atoms: C3_3  and  C4_4 
REMARK    3  A    between atoms: C4_4  and  C5_5 
REMARK    4  A    between atoms: C5_5  and  C6_6 
REMARK    5  A    between atoms: C5_5  and  C8_8 
REMARK    6  A    between atoms: C8_8  and  N1_9 
REMARK       I    between atoms: N1_9  and  C9_10 
REMARK    7  A    between atoms: C9_10  and  C10_12 
REMARK    8  A    between atoms: C10_12  and  S1_13 
REMARK    9  A    between atoms: S1_13  and  C11_14 
REMARK   10  A    between atoms: C13_17  and  C14_18 
ROOT
ATOM      1  C11 <0> d          -1.712  -2.277  -0.591  0.00  0.00     0.172 A 
ATOM      2  N2  <0> d          -1.294  -1.039  -0.562  0.00  0.00    -0.219 NA
ATOM      3  C12 <0> d          -2.370  -0.200  -0.644  0.00  0.00     0.128 A 
ATOM      4  C13 <0> d          -2.350   1.166  -0.644  0.00  0.00     0.050 C 
ATOM      5  C20 <0> d          -3.557  -1.071  -0.724  0.00  0.00     0.278 A 
ATOM      6  O2  <0> d          -4.722  -0.726  -0.805  0.00  0.00    -0.265 OA
ATOM      7  N3  <0> d          -3.079  -2.335  -0.692  0.00  0.00    -0.296 N 
ATOM      8  C21 <0> d          -3.884  -3.558  -0.748  0.00  0.00     0.162 C 
ENDROOT
BRANCH   1   9
ATOM      9  S1  <0> d          -0.658  -3.687  -0.510  0.00  0.00    -0.082 SA
BRANCH   9  10
ATOM     10  C10 <0> d           0.952  -2.870  -0.391  0.00  0.00     0.185 C 
BRANCH  10  11
ATOM     11  C9  <0> d           2.039  -3.910  -0.309  0.00  0.00     0.227 C 
ATOM     12  N1  <0> d           3.329  -3.531  -0.213  0.00  0.00    -0.360 N 
ATOM     13  H18 <0> d           3.558  -2.589  -0.198  0.00  0.00     0.162 HD
ATOM     14  O1  <0> d           1.753  -5.089  -0.328  0.00  0.00    -0.273 OA
BRANCH  12  15
ATOM     15  C8  <0> d           4.385  -4.543  -0.133  0.00  0.00     0.127 C 
BRANCH  15  16
ATOM     16  C5  <0> d           5.736  -3.854   0.073  0.00  0.00     0.003 C 
BRANCH  16  17
ATOM     17  C4  <0> d           6.827  -4.913   0.248  0.00  0.00     0.006 C 
BRANCH  17  18
ATOM     18  C3  <0> d           8.154  -4.228   0.578  0.00  0.00     0.000 C 
BRANCH  18  19
ATOM     19  C2  <0> d           9.245  -5.287   0.753  0.00  0.00    -0.005 C 
ATOM     20  C1  <0> d          10.572  -4.601   1.083  0.00  0.00     0.005 C 
ENDBRANCH  18  19
ENDBRANCH  17  18
ENDBRANCH  16  17
BRANCH  16  21
ATOM     21  C6  <0> d           6.058  -2.988  -1.147  0.00  0.00     0.002 C 
ATOM     22  C7  <0> d           6.034  -3.853  -2.408  0.00  0.00     0.005 C 
ENDBRANCH  16  21
ENDBRANCH  15  16
ENDBRANCH  12  15
ENDBRANCH  10  11
ENDBRANCH   9  10
ENDBRANCH   1   9
BRANCH   4  23
ATOM     23  C14 <0> d          -1.069   1.881  -0.684  0.00  0.00    -0.012 A 
ATOM     24  C19 <0> d          -1.030   3.237  -1.034  0.00  0.00     0.045 A 
ATOM     25  C18 <0> d           0.179   3.900  -1.074  0.00  0.00     0.048 A 
ATOM     26 Cl1  <0> d          -2.497   4.079  -1.424  0.00  0.00    -0.083 Cl
ATOM     27  C17 <0> d           1.351   3.229  -0.764  0.00  0.00     0.035 A 
ATOM     28  C16 <0> d           1.319   1.889  -0.410  0.00  0.00     0.024 A 
ATOM     29 Cl2  <0> d           2.868   4.072  -0.817  0.00  0.00    -0.084 Cl
ATOM     30  C15 <0> d           0.120   1.212  -0.366  0.00  0.00     0.015 A 
ENDBRANCH   4  23
TORSDOF 10
