@<TRIPOS>MOLECULE
ZINC08438504
   56    57     0     0     0
SMALL
USER_CHARGES
2-[(4Z)-4-[(2,4-dichlorophenyl)methylene]-1-methyl-5-oxo-imidazol-2-yl]sulfanyl-N-[(2R)-2-ethylhexyl]acetamide
@<TRIPOS>ATOM
      1 C1         10.5725   -4.6012    1.0826 C.3       1 <0>        -0.1544
      2 C2          9.2449   -5.2865    0.7531 C.3       1 <0>        -0.1260
      3 C3          8.1543   -4.2278    0.5777 C.3       1 <0>        -0.1199
      4 C4          6.8266   -4.9131    0.2482 C.3       1 <0>        -0.1163
      5 C5          5.7360   -3.8545    0.0728 C.3       1 <0>        -0.1004
      6 H1          5.6921   -3.2271    0.9630 H         1 <0>         0.0787
      7 C6          6.0577   -2.9880   -1.1465 C.3       1 <0>        -0.1223
      8 C7          6.0339   -3.8535   -2.4079 C.3       1 <0>        -0.1596
      9 C8          4.3853   -4.5430   -0.1330 C.3       1 <0>         0.1201
     10 N1          3.3287   -3.5314   -0.2134 N.am      1 <0>        -0.7184
     11 C9          2.0388   -3.9102   -0.3087 C.2       1 <0>         0.5318
     12 O1          1.7527   -5.0887   -0.3278 O.2       1 <0>        -0.5224
     13 C10         0.9519   -2.8696   -0.3914 C.3       1 <0>        -0.1582
     14 S1         -0.6585   -3.6873   -0.5097 S.3       1 <0>         0.1080
     15 C11        -1.7123   -2.2774   -0.5906 C.2       1 <0>         0.3109
     16 N2         -1.2944   -1.0389   -0.5623 N.2       1 <0>        -0.5126
     17 C12        -2.3697   -0.1995   -0.6436 C.2       1 <0>        -0.0254
     18 C13        -2.3496    1.1660   -0.6443 C.2       1 <0>         0.0287
     19 C14        -1.0693    1.8806   -0.6837 C.ar      1 <0>        -0.0670
     20 C15         0.1204    1.2124   -0.3659 C.ar      1 <0>        -0.0617
     21 C16         1.3192    1.8893   -0.4103 C.ar      1 <0>        -0.1176
     22 C17         1.3510    3.2295   -0.7636 C.ar      1 <0>        -0.0090
     23 C18         0.1795    3.9000   -1.0739 C.ar      1 <0>        -0.1118
     24 C19        -1.0300    3.2373   -1.0340 C.ar      1 <0>        -0.0017
     25 Cl1        -2.4974    4.0790   -1.4238 Cl        1 <0>        -0.0444
     26 Cl2         2.8678    4.0722   -0.8168 Cl        1 <0>        -0.0521
     27 C20        -3.5573   -1.0714   -0.7241 C.2       1 <0>         0.5233
     28 O2         -4.7216   -0.7257   -0.8054 O.2       1 <0>        -0.4709
     29 N3         -3.0792   -2.3347   -0.6917 N.am      1 <0>        -0.5568
     30 C21        -3.8840   -3.5575   -0.7480 C.3       1 <0>         0.0806
     31 H2         10.8461   -3.9290    0.2693 H         1 <0>         0.0533
     32 H3         10.4679   -4.0310    2.0056 H         1 <0>         0.0534
     33 H4         11.3495   -5.3554    1.2076 H         1 <0>         0.0538
     34 H5          8.9713   -5.9586    1.5664 H         1 <0>         0.0609
     35 H6          9.3495   -5.8567   -0.1699 H         1 <0>         0.0609
     36 H7          8.4278   -3.5557   -0.2356 H         1 <0>         0.0653
     37 H8          8.0496   -3.6576    1.5007 H         1 <0>         0.0614
     38 H9          6.5530   -5.5853    1.0615 H         1 <0>         0.0658
     39 H10         6.9313   -5.4834   -0.6748 H         1 <0>         0.0707
     40 H11         5.3145   -2.1956   -1.2354 H         1 <0>         0.0595
     41 H12         7.0472   -2.5464   -1.0275 H         1 <0>         0.0704
     42 H13         6.3658   -3.2617   -3.2610 H         1 <0>         0.0542
     43 H14         6.6999   -4.7062   -2.2761 H         1 <0>         0.0603
     44 H15         5.0189   -4.2093   -2.5853 H         1 <0>         0.0558
     45 H16         4.1862   -5.2104    0.7054 H         1 <0>         0.0724
     46 H17         4.4082   -5.1188   -1.0583 H         1 <0>         0.0754
     47 H18         3.5575   -2.5888   -0.1982 H         1 <0>         0.4039
     48 H19         1.1098   -2.2487   -1.2732 H         1 <0>         0.1319
     49 H20         0.9778   -2.2454    0.5018 H         1 <0>         0.1310
     50 H21        -3.2764    1.7196   -0.6158 H         1 <0>         0.1543
     51 H22         0.0981    0.1682   -0.0911 H         1 <0>         0.1785
     52 H23         2.2374    1.3742   -0.1695 H         1 <0>         0.1428
     53 H24         0.2128    4.9440   -1.3482 H         1 <0>         0.1485
     54 H25        -4.1595   -3.8581    0.2629 H         1 <0>         0.0794
     55 H26        -4.7864   -3.3721   -1.3306 H         1 <0>         0.0930
     56 H27        -3.3049   -4.3523   -1.2183 H         1 <0>         0.0900
@<TRIPOS>BOND
     1    1    2 1
     2    1   31 1
     3    1   32 1
     4    1   33 1
     5    2    3 1
     6    2   34 1
     7    2   35 1
     8    3    4 1
     9    3   36 1
    10    3   37 1
    11    4    5 1
    12    4   38 1
    13    4   39 1
    14    5    6 1
    15    5    7 1
    16    5    9 1
    17    7    8 1
    18    7   40 1
    19    7   41 1
    20    8   42 1
    21    8   43 1
    22    8   44 1
    23    9   10 1
    24    9   45 1
    25    9   46 1
    26   10   11 am
    27   10   47 1
    28   11   12 2
    29   11   13 1
    30   13   14 1
    31   13   48 1
    32   13   49 1
    33   14   15 1
    34   15   29 1
    35   15   16 2
    36   16   17 1
    37   17   18 2
    38   17   27 1
    39   18   19 1
    40   18   50 1
    41   19   24 ar
    42   19   20 ar
    43   20   21 ar
    44   20   51 1
    45   21   22 ar
    46   21   52 1
    47   22   23 ar
    48   22   26 1
    49   23   24 ar
    50   23   53 1
    51   24   25 1
    52   27   28 2
    53   27   29 am
    54   29   30 1
    55   30   54 1
    56   30   55 1
    57   30   56 1
