REMARK  8 active torsions:
REMARK  status: ('A' for Active; 'I' for Inactive)
REMARK    1  A    between atoms: C2_2  and  O1_3 
REMARK    2  A    between atoms: O1_3  and  C3_4 
REMARK    3  A    between atoms: C6_7  and  C10_12 
REMARK    4  A    between atoms: C8_9  and  O2_10 
REMARK    5  A    between atoms: N2_18  and  C14_19 
REMARK    6  A    between atoms: C17_22  and  C20_25 
REMARK    7  A    between atoms: C20_25  and  O5_27 
REMARK    8  A    between atoms: O5_27  and  C21_28 
ROOT
ATOM      1  C10 <0> d          -3.002   3.571   1.060  0.00  0.00     0.036 C 
ATOM      2  C11 <0> d          -4.011   2.796   0.586  0.00  0.00     0.077 A 
ATOM      3  C12 <0> d          -5.450   3.100   0.470  0.00  0.00     0.266 A 
ATOM      4  O3  <0> d          -5.904   4.173   0.822  0.00  0.00    -0.266 OA
ATOM      5  N1  <0> d          -6.224   2.156  -0.038  0.00  0.00    -0.296 N 
ATOM      6  C13 <0> d          -5.694   0.946  -0.424  0.00  0.00     0.176 A 
ATOM      7  N2  <0> d          -6.316  -0.095  -0.938  0.00  0.00    -0.224 NA
ATOM      8  S1  <0> d          -3.955   1.130  -0.059  0.00  0.00    -0.046 SA
ATOM      9  C23 <0> d          -7.661   2.397  -0.185  0.00  0.00     0.162 C 
ENDROOT
BRANCH   1  10
ATOM     10  C6  <0> d          -1.608   3.139   0.900  0.00  0.00    -0.032 A 
ATOM     11  C5  <0> d          -1.274   2.186  -0.070  0.00  0.00     0.014 A 
ATOM     12  C4  <0> d           0.034   1.779  -0.214  0.00  0.00     0.040 A 
ATOM     13  C3  <0> d           1.026   2.319   0.593  0.00  0.00     0.102 A 
ATOM     14  C8  <0> d           0.703   3.272   1.558  0.00  0.00     0.102 A 
ATOM     15  C7  <0> d          -0.606   3.683   1.714  0.00  0.00     0.051 A 
BRANCH  13  16
ATOM     16  O1  <0> d           2.315   1.917   0.442  0.00  0.00    -0.349 OA
BRANCH  16  17
ATOM     17  C2  <0> d           2.576   0.938  -0.565  0.00  0.00     0.171 C 
ATOM     18  C1  <0> d           4.071   0.614  -0.586  0.00  0.00     0.034 C 
ENDBRANCH  16  17
ENDBRANCH  13  16
BRANCH  14  19
ATOM     19  O2  <0> d           1.678   3.798   2.346  0.00  0.00    -0.353 OA
ATOM     20  C9  <0> d           1.277   4.770   3.314  0.00  0.00     0.210 C 
ENDBRANCH  14  19
ENDBRANCH   1  10
BRANCH   7  21
ATOM     21  C14 <0> d          -7.629   0.003  -1.289  0.00  0.00     0.059 A 
ATOM     22  C19 <0> d          -8.016   0.868  -2.320  0.00  0.00     0.032 A 
ATOM     23  C18 <0> d          -9.330   0.966  -2.672  0.00  0.00     0.020 A 
ATOM     24  C17 <0> d         -10.292   0.200  -2.002  0.00  0.00     0.039 A 
ATOM     25  C16 <0> d          -9.906  -0.665  -0.972  0.00  0.00     0.020 A 
ATOM     26  C15 <0> d          -8.591  -0.767  -0.623  0.00  0.00     0.032 A 
BRANCH  24  27
ATOM     27  C20 <0> d         -11.711   0.306  -2.382  0.00  0.00     0.293 C 
ATOM     28  O4  <0> d         -12.046   1.057  -3.277  0.00  0.00    -0.259 OA
BRANCH  27  29
ATOM     29  O5  <0> d         -12.637  -0.431  -1.738  0.00  0.00    -0.318 OA
BRANCH  29  30
ATOM     30  C21 <0> d         -14.016  -0.276  -2.165  0.00  0.00     0.174 C 
ATOM     31  C22 <0> d         -14.916  -1.185  -1.325  0.00  0.00     0.034 C 
ENDBRANCH  29  30
ENDBRANCH  27  29
ENDBRANCH  24  27
ENDBRANCH   7  21
TORSDOF 8
