@<TRIPOS>MOLECULE
ZINC08438924
   52    54     0     0     0
SMALL
USER_CHARGES
ethyl 4-[5-[(3-chloro-5-ethoxy-4-hydroxy-phenyl)methylene]-3-methyl-4-oxo-thiazolidin-2-ylidene]aminobenzoate
@<TRIPOS>ATOM
      1 C1         -1.6638    4.0155   -3.2038 C.3       1 <0>        -0.1535
      2 C2         -0.3762    3.4336   -2.6171 C.3       1 <0>         0.0486
      3 O1         -0.6889    2.2821   -1.8307 O.3       1 <0>        -0.2976
      4 C3          0.3514    1.6410   -1.2338 C.ar      1 <0>         0.1227
      5 C4          1.6401    2.1069   -1.4070 C.ar      1 <0>        -0.1575
      6 C5          2.7096    1.4414   -0.7956 C.ar      1 <0>        -0.0455
      7 C6          2.4665    0.3069   -0.0116 C.ar      1 <0>        -0.1066
      8 C7          1.1770   -0.1510    0.1552 C.ar      1 <0>        -0.0241
      9 C8          0.1171    0.5108   -0.4525 C.ar      1 <0>         0.1103
     10 O2         -1.1519    0.0551   -0.2841 O.3       1 <0>        -0.4696
     11 Cl1         0.8766   -1.5576    1.1273 Cl        1 <0>        -0.0296
     12 C9          4.0819    1.9317   -0.9758 C.2       1 <0>         0.0641
     13 C10         5.1312    1.1875   -0.5418 C.2       1 <0>        -0.2185
     14 C11         6.5592    1.5463   -0.4503 C.2       1 <0>         0.5522
     15 O3          6.9623    2.6443   -0.7868 O.2       1 <0>        -0.4780
     16 N1          7.3806    0.6220    0.0183 N.am      1 <0>        -0.5742
     17 C12         6.9073   -0.6163    0.3875 C.2       1 <0>         0.3702
     18 N2          7.5822   -1.6424    0.8628 N.2       1 <0>        -0.4624
     19 C13         8.8951   -1.4985    1.1965 C.ar      1 <0>         0.1387
     20 C14         9.8770   -2.2167    0.5022 C.ar      1 <0>        -0.1381
     21 C15        11.1918   -2.0692    0.8335 C.ar      1 <0>        -0.0390
     22 C16        11.5592   -1.2073    1.8741 C.ar      1 <0>        -0.1417
     23 C17        10.5773   -0.4932    2.5718 C.ar      1 <0>        -0.0332
     24 C18         9.2628   -0.6367    2.2376 C.ar      1 <0>        -0.1586
     25 C19        12.9779   -1.0522    2.2349 C.2       1 <0>         0.5108
     26 O4         13.2969   -0.3043    3.1384 O.2       1 <0>        -0.5056
     27 O5         13.9232   -1.7396    1.5634 O.3       1 <0>        -0.3543
     28 C20        15.3013   -1.5374    1.9733 C.3       1 <0>         0.0630
     29 C21        16.2231   -2.3943    1.1032 C.3       1 <0>        -0.1538
     30 S1          5.1556   -0.4931    0.0652 S.3       1 <0>         0.1026
     31 C22         8.8105    0.9169    0.1390 C.3       1 <0>         0.0486
     32 H1         -2.1477    3.2672   -3.8316 H         1 <0>         0.0683
     33 H2         -2.3358    4.3000   -2.3941 H         1 <0>         0.0691
     34 H3         -1.4253    4.8938   -3.8036 H         1 <0>         0.0823
     35 H4          0.1077    4.1818   -1.9893 H         1 <0>         0.0675
     36 H5          0.2959    3.1490   -3.4267 H         1 <0>         0.0670
     37 H6          1.8224    2.9824   -2.0126 H         1 <0>         0.1505
     38 H7          3.2887   -0.2092    0.4617 H         1 <0>         0.1442
     39 H8         -1.4300   -0.5891   -0.9495 H         1 <0>         0.3957
     40 H9          4.2566    2.8844   -1.4537 H         1 <0>         0.1683
     41 H10         9.5933   -2.8844   -0.2979 H         1 <0>         0.1400
     42 H11        11.9492   -2.6204    0.2960 H         1 <0>         0.1459
     43 H12        10.8609    0.1710    3.3748 H         1 <0>         0.1440
     44 H13         8.5056   -0.0857    2.7755 H         1 <0>         0.1339
     45 H14        15.5648   -0.4862    1.8561 H         1 <0>         0.0718
     46 H15        15.4158   -1.8264    3.0181 H         1 <0>         0.0720
     47 H16        15.9597   -3.4455    1.2204 H         1 <0>         0.0678
     48 H17        16.1087   -2.1053    0.0585 H         1 <0>         0.0675
     49 H18        17.2577   -2.2425    1.4110 H         1 <0>         0.0820
     50 H19         9.3869    0.0198   -0.0869 H         1 <0>         0.0905
     51 H20         9.0789    1.7073   -0.5620 H         1 <0>         0.0968
     52 H21         9.0297    1.2432    1.1556 H         1 <0>         0.0846
@<TRIPOS>BOND
     1    1    2 1
     2    1   32 1
     3    1   33 1
     4    1   34 1
     5    2    3 1
     6    2   35 1
     7    2   36 1
     8    3    4 1
     9    4    9 ar
    10    4    5 ar
    11    5    6 ar
    12    5   37 1
    13    6    7 ar
    14    6   12 1
    15    7    8 ar
    16    7   38 1
    17    8    9 ar
    18    8   11 1
    19    9   10 1
    20   10   39 1
    21   12   13 2
    22   12   40 1
    23   13   30 1
    24   13   14 1
    25   14   15 2
    26   14   16 am
    27   16   17 1
    28   16   31 1
    29   17   18 2
    30   17   30 1
    31   18   19 1
    32   19   24 ar
    33   19   20 ar
    34   20   21 ar
    35   20   41 1
    36   21   22 ar
    37   21   42 1
    38   22   23 ar
    39   22   25 1
    40   23   24 ar
    41   23   43 1
    42   24   44 1
    43   25   26 2
    44   25   27 1
    45   27   28 1
    46   28   29 1
    47   28   45 1
    48   28   46 1
    49   29   47 1
    50   29   48 1
    51   29   49 1
    52   31   50 1
    53   31   51 1
    54   31   52 1
