@<TRIPOS>MOLECULE
ZINC08438923
   53    55     0     0     0
SMALL
USER_CHARGES
ethyl 4-[5-[[4-(cyanomethoxy)-3-methoxy-phenyl]methylene]-3-methyl-4-oxo-thiazolidin-2-ylidene]aminobenzoate
@<TRIPOS>ATOM
      1 C1          4.3357   17.3392   -5.4212 C.3       1 <0>        -0.1538
      2 C2          4.5194   16.8188   -3.9942 C.3       1 <0>         0.0631
      3 O1          3.9964   15.4674   -3.9007 O.3       1 <0>        -0.3545
      4 C3          4.0818   14.8598   -2.7005 C.2       1 <0>         0.5108
      5 O2          4.5799   15.4435   -1.7579 O.2       1 <0>        -0.5058
      6 C4          3.5720   13.4893   -2.5315 C.ar      1 <0>        -0.1424
      7 C5          3.6608   12.8582   -1.2846 C.ar      1 <0>        -0.0333
      8 C6          3.1889   11.5882   -1.1279 C.ar      1 <0>        -0.1592
      9 C7          2.6154   10.9152   -2.2142 C.ar      1 <0>         0.1404
     10 C8          2.5319   11.5446   -3.4628 C.ar      1 <0>        -0.1390
     11 C9          2.9987   12.8167   -3.6176 C.ar      1 <0>        -0.0390
     12 N1          2.1439    9.6468   -2.0579 N.2       1 <0>        -0.4667
     13 C10         1.1294    9.4162   -1.2504 C.2       1 <0>         0.3706
     14 N2          0.3272   10.3276   -0.6027 N.am      1 <0>        -0.5746
     15 C11        -0.6617    9.9227    0.1761 C.2       1 <0>         0.5518
     16 O3         -1.3842   10.7155    0.7515 O.2       1 <0>        -0.4813
     17 C12        -0.8464    8.4661    0.3198 C.2       1 <0>        -0.2304
     18 C13        -1.7655    7.7817    1.0478 C.2       1 <0>         0.0745
     19 C14        -1.6432    6.3267    1.2036 C.ar      1 <0>        -0.0862
     20 C15        -0.4861    5.6686    0.7692 C.ar      1 <0>        -0.0786
     21 C16        -0.3746    4.3035    0.9163 C.ar      1 <0>        -0.1686
     22 C17        -1.4070    3.5771    1.4945 C.ar      1 <0>         0.1298
     23 C18        -2.5650    4.2239    1.9244 C.ar      1 <0>         0.1082
     24 C19        -2.6836    5.5929    1.7865 C.ar      1 <0>        -0.1346
     25 O4         -3.5758    3.5071    2.4846 O.3       1 <0>        -0.3016
     26 C20        -4.7327    4.2344    2.9025 C.3       1 <0>         0.0218
     27 O5         -1.2909    2.2310    1.6367 O.3       1 <0>        -0.2919
     28 C21        -0.0808    1.6313    1.1696 C.3       1 <0>         0.1565
     29 C22        -0.1310    0.1788    1.4034 C.1       1 <0>         0.2049
     30 N3         -0.1697   -0.9421    1.5838 N.1       1 <0>        -0.3856
     31 S1          0.4607    7.8451   -0.7288 S.3       1 <0>         0.0993
     32 C23         0.5672   11.7615   -0.7830 C.3       1 <0>         0.0487
     33 H1          3.2753   17.3418   -5.6733 H         1 <0>         0.0675
     34 H2          4.7283   18.3536   -5.4913 H         1 <0>         0.0820
     35 H3          4.8727   16.6929   -6.1155 H         1 <0>         0.0677
     36 H4          3.9824   17.4650   -3.2998 H         1 <0>         0.0718
     37 H5          5.5798   16.8162   -3.7420 H         1 <0>         0.0719
     38 H6          4.1027   13.3772   -0.4470 H         1 <0>         0.1436
     39 H7          3.2577   11.1013   -0.1663 H         1 <0>         0.1335
     40 H8          2.0937   11.0243   -4.3016 H         1 <0>         0.1397
     41 H9          2.9303   13.3037   -4.5792 H         1 <0>         0.1455
     42 H10        -2.5865    8.3074    1.5124 H         1 <0>         0.1632
     43 H11         0.3185    6.2310    0.3188 H         1 <0>         0.1361
     44 H12         0.5182    3.7968    0.5806 H         1 <0>         0.1508
     45 H13        -3.5783    6.0955    2.1231 H         1 <0>         0.1493
     46 H14        -4.4469    4.9725    3.6519 H         1 <0>         0.0594
     47 H15        -5.1736    4.7405    2.0437 H         1 <0>         0.0593
     48 H16        -5.4603    3.5448    3.3307 H         1 <0>         0.1053
     49 H17         0.7666    2.0567    1.7072 H         1 <0>         0.1149
     50 H18         0.0319    1.8239    0.1027 H         1 <0>         0.1152
     51 H19         0.8957   11.9491   -1.8053 H         1 <0>         0.0899
     52 H20        -0.3542   12.3111   -0.5908 H         1 <0>         0.0961
     53 H21         1.3388   12.0911   -0.0872 H         1 <0>         0.0839
@<TRIPOS>BOND
     1    1    2 1
     2    1   33 1
     3    1   34 1
     4    1   35 1
     5    2    3 1
     6    2   36 1
     7    2   37 1
     8    3    4 1
     9    4    5 2
    10    4    6 1
    11    6   11 ar
    12    6    7 ar
    13    7    8 ar
    14    7   38 1
    15    8    9 ar
    16    8   39 1
    17    9   10 ar
    18    9   12 1
    19   10   11 ar
    20   10   40 1
    21   11   41 1
    22   12   13 2
    23   13   31 1
    24   13   14 1
    25   14   15 am
    26   14   32 1
    27   15   16 2
    28   15   17 1
    29   17   18 2
    30   17   31 1
    31   18   19 1
    32   18   42 1
    33   19   24 ar
    34   19   20 ar
    35   20   21 ar
    36   20   43 1
    37   21   22 ar
    38   21   44 1
    39   22   23 ar
    40   22   27 1
    41   23   24 ar
    42   23   25 1
    43   24   45 1
    44   25   26 1
    45   26   46 1
    46   26   47 1
    47   26   48 1
    48   27   28 1
    49   28   29 1
    50   28   49 1
    51   28   50 1
    52   29   30 3
    53   32   51 1
    54   32   52 1
    55   32   53 1
