@<TRIPOS>MOLECULE
ZINC08438921
   55    57     0     0     0
SMALL
USER_CHARGES
ethyl 4-[5-[(4-ethoxy-3-methoxy-phenyl)methylene]-3-methyl-4-oxo-thiazolidin-2-ylidene]aminobenzoate
@<TRIPOS>ATOM
      1 C1          4.0707    0.6138   -0.5863 C.3       1 <0>        -0.1531
      2 C2          2.5756    0.9380   -0.5651 C.3       1 <0>         0.0496
      3 O1          2.3147    1.9172    0.4424 O.3       1 <0>        -0.2986
      4 C3          1.0256    2.3187    0.5932 C.ar      1 <0>         0.1343
      5 C4          0.0336    1.7786   -0.2144 C.ar      1 <0>        -0.1741
      6 C5         -1.2745    2.1856   -0.0704 C.ar      1 <0>        -0.0828
      7 C6         -1.6077    3.1387    0.8998 C.ar      1 <0>        -0.0972
      8 C7         -0.6063    3.6825    1.7136 C.ar      1 <0>        -0.1354
      9 C8          0.7031    3.2720    1.5581 C.ar      1 <0>         0.0984
     10 O2          1.6784    3.7983    2.3463 O.3       1 <0>        -0.3025
     11 C9          1.2767    4.7702    3.3139 C.3       1 <0>         0.0226
     12 C10        -3.0020    3.5705    1.0597 C.2       1 <0>         0.0818
     13 C11        -4.0112    2.7959    0.5857 C.2       1 <0>        -0.2358
     14 C12        -5.4501    3.1003    0.4701 C.2       1 <0>         0.5520
     15 O3         -5.9038    4.1734    0.8222 O.2       1 <0>        -0.4821
     16 N1         -6.2236    2.1558   -0.0380 N.am      1 <0>        -0.5752
     17 C13        -5.6935    0.9459   -0.4238 C.2       1 <0>         0.3789
     18 N2         -6.3165   -0.0945   -0.9376 N.2       1 <0>        -0.4678
     19 C14        -7.6290    0.0029   -1.2891 C.ar      1 <0>         0.1413
     20 C15        -8.5914   -0.7668   -0.6234 C.ar      1 <0>        -0.1392
     21 C16        -9.9061   -0.6652   -0.9719 C.ar      1 <0>        -0.0389
     22 C17       -10.2924    0.2004   -2.0025 C.ar      1 <0>        -0.1427
     23 C18        -9.3297    0.9657   -2.6722 C.ar      1 <0>        -0.0332
     24 C19        -8.0156    0.8684   -2.3203 C.ar      1 <0>        -0.1592
     25 C20       -11.7106    0.3057   -2.3824 C.2       1 <0>         0.5110
     26 O4        -12.0460    1.0567   -3.2773 O.2       1 <0>        -0.5059
     27 O5        -12.6374   -0.4310   -1.7379 O.3       1 <0>        -0.3545
     28 C21       -14.0164   -0.2763   -2.1654 C.3       1 <0>         0.0631
     29 C22       -14.9159   -1.1849   -1.3250 C.3       1 <0>        -0.1538
     30 S1         -3.9555    1.1301   -0.0589 S.3       1 <0>         0.0962
     31 C23        -7.6610    2.3974   -0.1852 C.3       1 <0>         0.0489
     32 H1          4.3717    0.2238    0.3861 H         1 <0>         0.0679
     33 H2          4.2697   -0.1332   -1.3547 H         1 <0>         0.0809
     34 H3          4.6359    1.5197   -0.8051 H         1 <0>         0.0677
     35 H4          2.0104    0.0320   -0.3463 H         1 <0>         0.0662
     36 H5          2.2746    1.3280   -1.5375 H         1 <0>         0.0656
     37 H6          0.2890    1.0407   -0.9605 H         1 <0>         0.1452
     38 H7         -2.0433    1.7670   -0.7030 H         1 <0>         0.1393
     39 H8         -0.8573    4.4206    2.4609 H         1 <0>         0.1463
     40 H9          0.5554    4.3244    3.9988 H         1 <0>         0.0576
     41 H10         2.1490    5.1075    3.8738 H         1 <0>         0.1043
     42 H11         0.8194    5.6199    2.8070 H         1 <0>         0.0577
     43 H12        -3.2247    4.5044    1.5544 H         1 <0>         0.1620
     44 H13        -8.2930   -1.4375    0.1688 H         1 <0>         0.1396
     45 H14       -10.6487   -1.2556   -0.4558 H         1 <0>         0.1456
     46 H15        -9.6278    1.6333   -3.4670 H         1 <0>         0.1436
     47 H16        -7.2731    1.4583   -2.8371 H         1 <0>         0.1336
     48 H17       -14.3234    0.7613   -2.0336 H         1 <0>         0.0718
     49 H18       -14.1038   -0.5503   -3.2167 H         1 <0>         0.0719
     50 H19       -14.6089   -2.2225   -1.4568 H         1 <0>         0.0677
     51 H20       -14.8285   -0.9109   -0.2736 H         1 <0>         0.0675
     52 H21       -15.9511   -1.0688   -1.6459 H         1 <0>         0.0820
     53 H22        -8.2070    1.4761    0.0182 H         1 <0>         0.0896
     54 H23        -7.9739    3.1681    0.5192 H         1 <0>         0.0964
     55 H24        -7.8717    2.7276   -1.2023 H         1 <0>         0.0840
@<TRIPOS>BOND
     1    1    2 1
     2    1   32 1
     3    1   33 1
     4    1   34 1
     5    2    3 1
     6    2   35 1
     7    2   36 1
     8    3    4 1
     9    4    9 ar
    10    4    5 ar
    11    5    6 ar
    12    5   37 1
    13    6    7 ar
    14    6   38 1
    15    7    8 ar
    16    7   12 1
    17    8    9 ar
    18    8   39 1
    19    9   10 1
    20   10   11 1
    21   11   40 1
    22   11   41 1
    23   11   42 1
    24   12   13 2
    25   12   43 1
    26   13   30 1
    27   13   14 1
    28   14   15 2
    29   14   16 am
    30   16   17 1
    31   16   31 1
    32   17   18 2
    33   17   30 1
    34   18   19 1
    35   19   24 ar
    36   19   20 ar
    37   20   21 ar
    38   20   44 1
    39   21   22 ar
    40   21   45 1
    41   22   23 ar
    42   22   25 1
    43   23   24 ar
    44   23   46 1
    45   24   47 1
    46   25   26 2
    47   25   27 1
    48   27   28 1
    49   28   29 1
    50   28   48 1
    51   28   49 1
    52   29   50 1
    53   29   51 1
    54   29   52 1
    55   31   53 1
    56   31   54 1
    57   31   55 1
