REMARK  7 active torsions:
REMARK  status: ('A' for Active; 'I' for Inactive)
REMARK    1  A    between atoms: O1_2  and  C2_3 
REMARK    2  A    between atoms: C6_7  and  C8_9 
REMARK    3  A    between atoms: C8_9  and  C9_11 
REMARK    4  A    between atoms: C9_11  and  O3_12 
REMARK    5  A    between atoms: O3_12  and  C10_13 
REMARK    6  A    between atoms: C10_13  and  C11_15 
REMARK    7  A    between atoms: C16_20  and  N1_21 
ROOT
ATOM      1  C11 <0> d           2.448  -8.368  -4.231  0.00  0.00     0.066 A 
ATOM      2  C12 <0> d           1.830  -8.995  -3.146  0.00  0.00     0.020 A 
ATOM      3  C13 <0> d           1.796 -10.371  -3.076  0.00  0.00     0.001 A 
ATOM      4  C14 <0> d           2.374 -11.137  -4.076  0.00  0.00     0.002 A 
ATOM      5  C15 <0> d           2.989 -10.531  -5.153  0.00  0.00     0.031 A 
ATOM      6  C16 <0> d           3.027  -9.147  -5.244  0.00  0.00     0.061 A 
ENDROOT
BRANCH   1   7
ATOM      7  C10 <0> d           2.487  -6.896  -4.313  0.00  0.00     0.296 C 
ATOM      8  O4  <0> d           3.022  -6.355  -5.260  0.00  0.00    -0.259 OA
BRANCH   7   9
ATOM      9  O3  <0> d           1.930  -6.152  -3.337  0.00  0.00    -0.310 OA
BRANCH   9  10
ATOM     10  C9  <0> d           2.005  -4.733  -3.482  0.00  0.00     0.263 C 
BRANCH  10  11
ATOM     11  C8  <0> d           1.334  -4.072  -2.305  0.00  0.00     0.183 C 
ATOM     12  O2  <0> d           0.840  -4.750  -1.429  0.00  0.00    -0.290 OA
BRANCH  11  13
ATOM     13  C6  <0> d           1.277  -2.604  -2.219  0.00  0.00     0.015 A 
ATOM     14  C5  <0> d           1.845  -1.819  -3.227  0.00  0.00     0.015 A 
ATOM     15  C4  <0> d           1.790  -0.443  -3.142  0.00  0.00     0.004 A 
ATOM     16  C3  <0> d           1.173   0.163  -2.063  0.00  0.00     0.037 A 
ATOM     17  C2  <0> d           0.606  -0.607  -1.056  0.00  0.00     0.069 A 
ATOM     18  C7  <0> d           0.660  -1.988  -1.126  0.00  0.00     0.052 A 
BRANCH  17  19
ATOM     19  O1  <0> d           0.002  -0.004   0.002  0.00  0.00    -0.356 OA
ATOM     20  C1  <0> d          -0.017   1.425   0.010  0.00  0.00     0.210 C 
ENDBRANCH  17  19
ENDBRANCH  11  13
ENDBRANCH  10  11
ENDBRANCH   9  10
ENDBRANCH   7   9
ENDBRANCH   1   7
BRANCH   6  21
ATOM     21  N1  <0> d           3.644  -8.532  -6.335  0.00  0.00    -0.251 N 
ATOM     22  C23 <0> d           2.984  -8.218  -7.456  0.00  0.00     0.236 A 
ATOM     23  C22 <0> d           3.935  -7.566  -8.434  0.00  0.00     0.100 A 
ATOM     24  O6  <0> d           1.806  -8.423  -7.656  0.00  0.00    -0.272 OA
ATOM     25  C18 <0> d           5.291  -7.567  -7.669  0.00  0.00     0.100 A 
ATOM     26  C21 <0> d           4.205  -8.584  -9.615  0.00  0.00     0.022 C 
ATOM     27  C17 <0> d           4.943  -8.214  -6.348  0.00  0.00     0.236 A 
ATOM     28  C19 <0> d           6.189  -8.557  -8.477  0.00  0.00     0.022 C 
ATOM     29  O5  <0> d           5.721  -8.414  -5.440  0.00  0.00    -0.272 OA
ATOM     30  C25 <0> d           5.539  -9.927  -8.245  0.00  0.00    -0.025 C 
ATOM     31  C20 <0> d           5.706  -8.250  -9.941  0.00  0.00     0.018 C 
ATOM     32  C24 <0> d           4.383  -9.939  -8.920  0.00  0.00    -0.025 C 
ENDBRANCH   6  21
TORSDOF 7
