@<TRIPOS>MOLECULE
ZINC08432844
   49    53     0     0     0
SMALL
USER_CHARGES

@<TRIPOS>ATOM
      1 C1         -0.0166    1.3738    0.0096 C.ar      1 <0>        -0.1180
      2 C2          1.1697    2.0895    0.0021 C.ar      1 <0>        -0.0687
      3 C3          2.3830    1.4307   -0.0135 C.ar      1 <0>        -0.1116
      4 C4          2.4213    0.0437   -0.0218 C.ar      1 <0>         0.1774
      5 C5          1.2224   -0.6842   -0.0138 C.ar      1 <0>        -0.1162
      6 C6          0.0021   -0.0041    0.0020 C.ar      1 <0>        -0.0501
      7 C7          1.2498   -2.1584   -0.0230 C.2       1 <0>         0.5164
      8 O1          2.3131   -2.7462   -0.0375 O.2       1 <0>        -0.5006
      9 O2          0.0956   -2.8537   -0.0152 O.3       1 <0>        -0.3260
     10 C8          0.1969   -4.2791   -0.0249 C.3       1 <0>         0.0207
     11 C9         -1.1847   -4.8809   -0.0142 C.2       1 <0>         0.4013
     12 O3         -2.1600   -4.1602    0.0002 O.2       1 <0>        -0.4214
     13 C10        -1.3502   -6.3417   -0.0213 C.ar      1 <0>        -0.1802
     14 C11        -0.2269   -7.1762   -0.0322 C.ar      1 <0>        -0.0444
     15 C12        -0.3890   -8.5441   -0.0388 C.ar      1 <0>        -0.1638
     16 C13        -1.6622   -9.0948   -0.0352 C.ar      1 <0>         0.1375
     17 C14        -2.7799   -8.2732   -0.0245 C.ar      1 <0>        -0.1641
     18 C15        -2.6318   -6.9038   -0.0114 C.ar      1 <0>        -0.0250
     19 F1         -1.8143  -10.4371   -0.0427 F         1 <0>        -0.1294
     20 N1          3.6475   -0.6242   -0.0385 N.am      1 <0>        -0.5225
     21 C16         4.2734   -0.9587   -1.1724 C.2       1 <0>         0.5501
     22 O4          3.8653   -0.7304   -2.2908 O.2       1 <0>        -0.4741
     23 C17         5.5689   -1.6647   -0.8432 C.3       1 <0>        -0.1189
     24 H1          5.6453   -2.6562   -1.2895 H         1 <0>         0.1398
     25 C18         6.7519   -0.7216   -1.2280 C.3       1 <0>        -0.0589
     26 H2          7.1080   -0.7899   -2.2559 H         1 <0>         0.1197
     27 C19         7.7852   -1.0840   -0.0997 C.3       1 <0>        -0.1127
     28 C20         6.7874   -0.7176    1.0588 C.3       1 <0>        -0.0563
     29 H3          7.1791   -0.7694    2.0746 H         1 <0>         0.1207
     30 C21         5.5814   -1.6811    0.7140 C.3       1 <0>        -0.1174
     31 H4          5.6775   -2.6807    1.1379 H         1 <0>         0.1429
     32 C22         4.2944   -0.9766    1.0782 C.2       1 <0>         0.5507
     33 O5          3.9075   -0.7654    2.2074 O.2       1 <0>        -0.4738
     34 C23         6.3244    0.6634    0.5790 C.2       1 <0>        -0.1735
     35 C24         6.2943    0.6648   -0.7588 C.2       1 <0>        -0.1739
     36 H5         -0.9605    1.8984    0.0260 H         1 <0>         0.1430
     37 H6          1.1453    3.1692    0.0082 H         1 <0>         0.1423
     38 H7          3.3034    1.9957   -0.0196 H         1 <0>         0.1371
     39 H8         -0.9254   -0.5575    0.0083 H         1 <0>         0.1506
     40 H9          0.7259   -4.5997   -0.9223 H         1 <0>         0.1081
     41 H10         0.7443   -4.6104    0.8575 H         1 <0>         0.1080
     42 H11         0.7649   -6.7487   -0.0357 H         1 <0>         0.1432
     43 H12         0.4771   -9.1892   -0.0472 H         1 <0>         0.1466
     44 H13        -3.7684   -8.7083   -0.0217 H         1 <0>         0.1469
     45 H14        -3.5027   -6.2653    0.0014 H         1 <0>         0.1480
     46 H15         8.0524   -2.1407   -0.1021 H         1 <0>         0.0883
     47 H16         8.6631   -0.4381   -0.1145 H         1 <0>         0.0900
     48 H17         6.0598    1.4964    1.2134 H         1 <0>         0.1342
     49 H18         6.0128    1.4873   -1.3996 H         1 <0>         0.1382
@<TRIPOS>BOND
     1    1    6 ar
     2    1    2 ar
     3    1   36 1
     4    2    3 ar
     5    2   37 1
     6    3    4 ar
     7    3   38 1
     8    4    5 ar
     9    4   20 1
    10    5    6 ar
    11    5    7 1
    12    6   39 1
    13    7    8 2
    14    7    9 1
    15    9   10 1
    16   10   11 1
    17   10   40 1
    18   10   41 1
    19   11   12 2
    20   11   13 1
    21   13   18 ar
    22   13   14 ar
    23   14   15 ar
    24   14   42 1
    25   15   16 ar
    26   15   43 1
    27   16   17 ar
    28   16   19 1
    29   17   18 ar
    30   17   44 1
    31   18   45 1
    32   20   32 am
    33   20   21 am
    34   21   22 2
    35   21   23 1
    36   23   24 1
    37   23   30 1
    38   23   25 1
    39   25   26 1
    40   25   35 1
    41   25   27 1
    42   27   28 1
    43   27   46 1
    44   27   47 1
    45   28   29 1
    46   28   30 1
    47   28   34 1
    48   30   31 1
    49   30   32 1
    50   32   33 2
    51   34   35 2
    52   34   48 1
    53   35   49 1
