REMARK  8 active torsions:
REMARK  status: ('A' for Active; 'I' for Inactive)
REMARK    1  A    between atoms: C2_2  and  O1_3 
REMARK    2  A    between atoms: O1_3  and  C3_4 
REMARK    3  A    between atoms: C5_6  and  C12_15 
REMARK    4  A    between atoms: C8_9  and  O2_10 
REMARK    5  A    between atoms: O2_10  and  C9_11 
REMARK    6  A    between atoms: C9_11  and  C10_12 
REMARK    7  A    between atoms: C23_28  and  C24_29 
REMARK    8  A    between atoms: C24_29  and  O5_31 
ROOT
ATOM      1  C12 <0> d           4.891   2.437  -0.025  0.00  0.00     0.099 C 
ATOM      2  C13 <0> d           3.383   2.504  -0.015  0.00  0.00     0.034 A 
ATOM      3  C14 <0> d           2.598   1.384  -0.017  0.00  0.00     0.055 A 
ATOM      4  C15 <0> d           1.177   1.785   0.000  0.00  0.00     0.005 A 
ATOM      5  C16 <0> d          -0.013   1.076   0.008  0.00  0.00     0.014 A 
ATOM      6  C17 <0> d          -1.226   1.755   0.017  0.00  0.00     0.001 A 
ATOM      7  C18 <0> d          -1.253   3.133   0.032  0.00  0.00     0.001 A 
ATOM      8  C19 <0> d          -0.064   3.857   0.024  0.00  0.00     0.016 A 
ATOM      9  C20 <0> d           1.146   3.192   0.009  0.00  0.00     0.027 A 
ATOM     10  C21 <0> d           2.565   3.651  -0.002  0.00  0.00     0.192 A 
ATOM     11  O3  <0> d           2.946   4.805   0.001  0.00  0.00    -0.287 OA
ATOM     12  N1  <0> d           3.136   0.116  -0.035  0.00  0.00    -0.358 N 
ATOM     13  C22 <0> d           4.470  -0.013  -0.324  0.00  0.00     0.019 C 
ATOM     14  C23 <0> d           5.315   1.027  -0.337  0.00  0.00     0.052 C 
ATOM     15  C26 <0> d           5.010  -1.384  -0.641  0.00  0.00     0.069 C 
ATOM     16  H18 <0> d           2.499  -0.755   0.178  0.00  0.00     0.166 HD
ENDROOT
BRANCH   1  17
ATOM     17  C5  <0> d           5.425   2.838   1.326  0.00  0.00    -0.040 A 
ATOM     18  C4  <0> d           6.284   3.916   1.436  0.00  0.00     0.048 A 
ATOM     19  C3  <0> d           6.772   4.289   2.678  0.00  0.00     0.104 A 
ATOM     20  C8  <0> d           6.405   3.570   3.811  0.00  0.00     0.124 A 
ATOM     21  C7  <0> d           5.548   2.486   3.694  0.00  0.00     0.070 A 
ATOM     22  C6  <0> d           5.061   2.122   2.451  0.00  0.00     0.035 A 
ATOM     23 Cl1  <0> d           5.089   1.585   5.105  0.00  0.00    -0.081 Cl
BRANCH  19  24
ATOM     24  O1  <0> d           7.612   5.352   2.789  0.00  0.00    -0.349 OA
BRANCH  24  25
ATOM     25  C2  <0> d           7.946   6.044   1.583  0.00  0.00     0.171 C 
ATOM     26  C1  <0> d           8.894   7.201   1.904  0.00  0.00     0.034 C 
ENDBRANCH  24  25
ENDBRANCH  19  24
BRANCH  20  27
ATOM     27  O2  <0> d           6.887   3.929   5.032  0.00  0.00    -0.343 OA
BRANCH  27  28
ATOM     28  C9  <0> d           8.115   3.329   5.447  0.00  0.00     0.202 C 
BRANCH  28  29
ATOM     29  C10 <0> d           8.489   3.842   6.813  0.00  0.00    -0.011 C 
ATOM     30  C11 <0> d           8.904   3.010   7.735  0.00  0.00     0.009 C 
ENDBRANCH  28  29
ENDBRANCH  27  28
ENDBRANCH  20  27
ENDBRANCH   1  17
BRANCH  14  31
ATOM     31  C24 <0> d           6.672   0.788  -0.660  0.00  0.00     0.291 C 
ATOM     32  O4  <0> d           7.046  -0.341  -0.916  0.00  0.00    -0.260 OA
BRANCH  31  33
ATOM     33  O5  <0> d           7.551   1.812  -0.682  0.00  0.00    -0.323 OA
ATOM     34  C25 <0> d           8.904   1.498  -1.016  0.00  0.00     0.213 C 
ENDBRANCH  31  33
ENDBRANCH  14  31
TORSDOF 8
