@<TRIPOS>MOLECULE
ZINC08437423
   57    60     0     0     0
SMALL
USER_CHARGES
methyl (4R)-4-(4-allyloxy-3-chloro-5-ethoxy-phenyl)-2-methyl-5-oxo-1,4-dihydroindeno[2,1-e]pyridine-3-carboxylate
@<TRIPOS>ATOM
      1 C1          8.8936    7.2008    1.9042 C.3       1 <0>        -0.1534
      2 C2          7.9455    6.0437    1.5831 C.3       1 <0>         0.0485
      3 O1          7.6124    5.3523    2.7886 O.3       1 <0>        -0.3002
      4 C3          6.7719    4.2889    2.6783 C.ar      1 <0>         0.1299
      5 C4          6.2837    3.9155    1.4361 C.ar      1 <0>        -0.1676
      6 C5          5.4253    2.8376    1.3259 C.ar      1 <0>        -0.0225
      7 C6          5.0605    2.1224    2.4514 C.ar      1 <0>        -0.1243
      8 C7          5.5485    2.4861    3.6937 C.ar      1 <0>        -0.0179
      9 C8          6.4054    3.5699    3.8114 C.ar      1 <0>         0.0678
     10 O2          6.8867    3.9289    5.0318 O.3       1 <0>        -0.3085
     11 C9          8.1152    3.3285    5.4469 C.3       1 <0>         0.0925
     12 C10         8.4890    3.8425    6.8134 C.2       1 <0>        -0.1522
     13 C11         8.9042    3.0097    7.7354 C.2       1 <0>        -0.1794
     14 Cl1         5.0887    1.5855    5.1048 Cl        1 <0>        -0.0505
     15 C12         4.8909    2.4373   -0.0251 C.3       1 <0>         0.1014
     16 H1          5.2898    3.1227   -0.7874 H         1 <0>         0.0987
     17 C13         3.3833    2.5044   -0.0150 C.2       1 <0>        -0.2816
     18 C14         2.5984    1.3837   -0.0165 C.2       1 <0>         0.2437
     19 C15         1.1767    1.7848    0.0004 C.ar      1 <0>        -0.0649
     20 C16        -0.0126    1.0758    0.0080 C.ar      1 <0>        -0.0833
     21 C17        -1.2257    1.7550    0.0174 C.ar      1 <0>        -0.0967
     22 C18        -1.2527    3.1327    0.0316 C.ar      1 <0>        -0.1052
     23 C19        -0.0640    3.8565    0.0239 C.ar      1 <0>        -0.0506
     24 C20         1.1456    3.1923    0.0086 C.ar      1 <0>        -0.1512
     25 C21         2.5646    3.6508   -0.0018 C.2       1 <0>         0.4504
     26 O3          2.9461    4.8054    0.0007 O.2       1 <0>        -0.4222
     27 N1          3.1364    0.1158   -0.0350 N.pl3     1 <0>        -0.6240
     28 C22         4.4702   -0.0128   -0.3244 C.2       1 <0>         0.2679
     29 C23         5.3153    1.0270   -0.3374 C.2       1 <0>        -0.2719
     30 C24         6.6718    0.7879   -0.6596 C.2       1 <0>         0.5347
     31 O4          7.0463   -0.3410   -0.9164 O.2       1 <0>        -0.5035
     32 O5          7.5506    1.8118   -0.6821 O.3       1 <0>        -0.3386
     33 C25         8.9042    1.4978   -1.0155 C.3       1 <0>         0.0292
     34 C26         5.0097   -1.3838   -0.6413 C.3       1 <0>        -0.2623
     35 H2          9.1500    7.7330    0.9763 H         1 <0>         0.0807
     36 H3          9.8107    6.8061    2.3659 H         1 <0>         0.0663
     37 H4          8.4017    7.8952    2.6012 H         1 <0>         0.0682
     38 H5          7.0284    6.4384    1.1214 H         1 <0>         0.0671
     39 H6          8.4373    5.3493    0.8860 H         1 <0>         0.0652
     40 H7          6.5707    4.4694    0.5545 H         1 <0>         0.1412
     41 H8          4.3934    1.2779    2.3605 H         1 <0>         0.1279
     42 H9          7.9943    2.2359    5.4866 H         1 <0>         0.0576
     43 H10         8.9089    3.5837    4.7294 H         1 <0>         0.0641
     44 H11         8.4132    4.9169    7.0366 H         1 <0>         0.1213
     45 H12         9.1770    3.3848    8.7328 H         1 <0>         0.1091
     46 H13         8.9800    1.9353    7.5122 H         1 <0>         0.0996
     47 H14         0.0021   -0.0041    0.0020 H         1 <0>         0.1314
     48 H15        -2.1521    1.1998    0.0188 H         1 <0>         0.1380
     49 H16        -2.1993    3.6524    0.0439 H         1 <0>         0.1389
     50 H17        -0.0881    4.9362    0.0302 H         1 <0>         0.1385
     51 H18         2.4993   -0.7552    0.1785 H         1 <0>         0.4547
     52 H19         9.5089    2.4165   -0.9971 H         1 <0>         0.1029
     53 H20         8.9407    1.0548   -2.0217 H         1 <0>         0.0639
     54 H21         9.3049    0.7804   -0.2843 H         1 <0>         0.0630
     55 H22         6.0877   -1.3146   -0.8490 H         1 <0>         0.2131
     56 H23         4.4914   -1.7868   -1.5239 H         1 <0>         0.0778
     57 H24         4.8438   -2.0506    0.2176 H         1 <0>         0.0769
@<TRIPOS>BOND
     1    1    2 1
     2    1   35 1
     3    1   36 1
     4    1   37 1
     5    2    3 1
     6    2   38 1
     7    2   39 1
     8    3    4 1
     9    4    9 ar
    10    4    5 ar
    11    5    6 ar
    12    5   40 1
    13    6    7 ar
    14    6   15 1
    15    7    8 ar
    16    7   41 1
    17    8    9 ar
    18    8   14 1
    19    9   10 1
    20   10   11 1
    21   11   12 1
    22   11   42 1
    23   11   43 1
    24   12   13 2
    25   12   44 1
    26   13   45 1
    27   13   46 1
    28   15   16 1
    29   15   29 1
    30   15   17 1
    31   17   25 1
    32   17   18 2
    33   18   19 1
    34   18   27 1
    35   19   24 ar
    36   19   20 ar
    37   20   21 ar
    38   20   47 1
    39   21   22 ar
    40   21   48 1
    41   22   23 ar
    42   22   49 1
    43   23   24 ar
    44   23   50 1
    45   24   25 1
    46   25   26 2
    47   27   28 1
    48   27   51 1
    49   28   29 2
    50   28   34 1
    51   29   30 1
    52   30   31 2
    53   30   32 1
    54   32   33 1
    55   33   52 1
    56   33   53 1
    57   33   54 1
    58   34   55 1
    59   34   56 1
    60   34   57 1
