@<TRIPOS>MOLECULE
ZINC08432865
   53    57     0     0     0
SMALL
USER_CHARGES

@<TRIPOS>ATOM
      1 C1         -0.0173    1.4248    0.0099 C.3       1 <0>         0.0249
      2 O1          0.0021   -0.0041    0.0020 O.3       1 <0>        -0.3136
      3 C2          0.6058   -0.6072   -1.0558 C.ar      1 <0>         0.1196
      4 C3          1.1732    0.1632   -2.0627 C.ar      1 <0>        -0.1744
      5 C4          1.7895   -0.4434   -3.1418 C.ar      1 <0>        -0.0875
      6 C5          1.8453   -1.8190   -3.2268 C.ar      1 <0>        -0.1132
      7 C6          1.2774   -2.6041   -2.2185 C.ar      1 <0>        -0.1271
      8 C7          0.6598   -1.9882   -1.1258 C.ar      1 <0>        -0.0896
      9 C8          1.3338   -4.0723   -2.3048 C.2       1 <0>         0.4000
     10 O2          0.8404   -4.7504   -1.4291 O.2       1 <0>        -0.4185
     11 C9          2.0047   -4.7327   -3.4815 C.3       1 <0>         0.0229
     12 O3          1.9301   -6.1524   -3.3373 O.3       1 <0>        -0.3263
     13 C10         2.4873   -6.8965   -4.3127 C.2       1 <0>         0.5162
     14 O4          3.0219   -6.3548   -5.2599 O.2       1 <0>        -0.5008
     15 C11         2.4483   -8.3682   -4.2308 C.ar      1 <0>        -0.1158
     16 C12         1.8296   -8.9955   -3.1464 C.ar      1 <0>        -0.0502
     17 C13         1.7962  -10.3713   -3.0760 C.ar      1 <0>        -0.1179
     18 C14         2.3739  -11.1371   -4.0757 C.ar      1 <0>        -0.0690
     19 C15         2.9887  -10.5309   -5.1531 C.ar      1 <0>        -0.1117
     20 C16         3.0270   -9.1467   -5.2438 C.ar      1 <0>         0.1772
     21 N1          3.6437   -8.5319   -6.3354 N.am      1 <0>        -0.5223
     22 C17         4.9430   -8.2140   -6.3475 C.2       1 <0>         0.5500
     23 O5          5.7210   -8.4141   -5.4396 O.2       1 <0>        -0.4742
     24 C18         5.2911   -7.5674   -7.6687 C.3       1 <0>        -0.1190
     25 H1          5.7310   -6.5759   -7.5611 H         1 <0>         0.1398
     26 C19         6.1886   -8.5568   -8.4766 C.3       1 <0>        -0.0589
     27 H2          7.2611   -8.4941   -8.2929 H         1 <0>         0.1196
     28 C20         5.7063   -8.2496   -9.9412 C.3       1 <0>        -0.1127
     29 C21         4.2051   -8.5836   -9.6147 C.3       1 <0>        -0.0563
     30 H3          3.5066   -8.5582  -10.4511 H         1 <0>         0.1207
     31 C22         3.9349   -7.5661   -8.4344 C.3       1 <0>        -0.1174
     32 H4          3.6232   -6.5756   -8.7656 H         1 <0>         0.1429
     33 C23         2.9843   -8.2181   -7.4563 C.2       1 <0>         0.5508
     34 O6          1.8064   -8.4230   -7.6561 O.2       1 <0>        -0.4738
     35 C24         4.3832   -9.9389   -8.9197 C.2       1 <0>        -0.1735
     36 C25         5.5390   -9.9265   -8.2455 C.2       1 <0>        -0.1739
     37 H5          1.0053    1.8021    0.0021 H         1 <0>         0.0580
     38 H6         -0.5445    1.7859   -0.8732 H         1 <0>         0.0580
     39 H7         -0.5275    1.7763    0.9067 H         1 <0>         0.1045
     40 H8          1.1324    1.2408   -2.0028 H         1 <0>         0.1360
     41 H9          2.2285    0.1621   -3.9210 H         1 <0>         0.1362
     42 H10         2.3269   -2.2893   -4.0713 H         1 <0>         0.1347
     43 H11         0.2230   -2.5881   -0.3412 H         1 <0>         0.1452
     44 H12         1.5017   -4.4340   -4.4013 H         1 <0>         0.1085
     45 H13         3.0499   -4.4261   -3.5230 H         1 <0>         0.1085
     46 H14         1.3785   -8.4029   -2.3643 H         1 <0>         0.1508
     47 H15         1.3177  -10.8550   -2.2373 H         1 <0>         0.1430
     48 H16         2.3434  -12.2147   -4.0117 H         1 <0>         0.1421
     49 H17         3.4368  -11.1347   -5.9284 H         1 <0>         0.1369
     50 H18         5.8510   -7.2053  -10.2180 H         1 <0>         0.0883
     51 H19         6.1361   -8.9324  -10.6741 H         1 <0>         0.0900
     52 H20         3.6896  -10.7658   -8.9606 H         1 <0>         0.1342
     53 H21         5.9530  -10.7301   -7.6546 H         1 <0>         0.1382
@<TRIPOS>BOND
     1    1    2 1
     2    1   37 1
     3    1   38 1
     4    1   39 1
     5    2    3 1
     6    3    8 ar
     7    3    4 ar
     8    4    5 ar
     9    4   40 1
    10    5    6 ar
    11    5   41 1
    12    6    7 ar
    13    6   42 1
    14    7    8 ar
    15    7    9 1
    16    8   43 1
    17    9   10 2
    18    9   11 1
    19   11   12 1
    20   11   44 1
    21   11   45 1
    22   12   13 1
    23   13   14 2
    24   13   15 1
    25   15   20 ar
    26   15   16 ar
    27   16   17 ar
    28   16   46 1
    29   17   18 ar
    30   17   47 1
    31   18   19 ar
    32   18   48 1
    33   19   20 ar
    34   19   49 1
    35   20   21 1
    36   21   33 am
    37   21   22 am
    38   22   23 2
    39   22   24 1
    40   24   25 1
    41   24   31 1
    42   24   26 1
    43   26   27 1
    44   26   36 1
    45   26   28 1
    46   28   29 1
    47   28   50 1
    48   28   51 1
    49   29   30 1
    50   29   31 1
    51   29   35 1
    52   31   32 1
    53   31   33 1
    54   33   34 2
    55   35   36 2
    56   35   52 1
    57   36   53 1
