REMARK  6 active torsions:
REMARK  status: ('A' for Active; 'I' for Inactive)
REMARK    1  A    between atoms: C4_4  and  N1_20 
REMARK    2  A    between atoms: C5_5  and  C7_7 
REMARK    3  A    between atoms: C7_7  and  O2_9 
REMARK    4  A    between atoms: O2_9  and  C8_10 
REMARK    5  A    between atoms: C8_10  and  C9_11 
REMARK    6  A    between atoms: C9_11  and  C10_13 
ROOT
ATOM      1  C1  <0> d          -0.017   1.374   0.010  0.00  0.00     0.001 A 
ATOM      2  C2  <0> d           1.170   2.090   0.002  0.00  0.00     0.002 A 
ATOM      3  C3  <0> d           2.383   1.431  -0.013  0.00  0.00     0.031 A 
ATOM      4  C4  <0> d           2.421   0.044  -0.022  0.00  0.00     0.061 A 
ATOM      5  C5  <0> d           1.222  -0.684  -0.014  0.00  0.00     0.066 A 
ATOM      6  C6  <0> d           0.002  -0.004   0.002  0.00  0.00     0.020 A 
ENDROOT
BRANCH   5   7
ATOM      7  C7  <0> d           1.250  -2.158  -0.023  0.00  0.00     0.296 C 
ATOM      8  O1  <0> d           2.313  -2.746  -0.037  0.00  0.00    -0.259 OA
BRANCH   7   9
ATOM      9  O2  <0> d           0.096  -2.854  -0.015  0.00  0.00    -0.310 OA
BRANCH   9  10
ATOM     10  C8  <0> d           0.197  -4.279  -0.025  0.00  0.00     0.263 C 
BRANCH  10  11
ATOM     11  C9  <0> d          -1.185  -4.881  -0.014  0.00  0.00     0.183 C 
ATOM     12  O3  <0> d          -2.160  -4.160   0.000  0.00  0.00    -0.290 OA
BRANCH  11  13
ATOM     13  C10 <0> d          -1.350  -6.342  -0.021  0.00  0.00     0.012 A 
ATOM     14  C15 <0> d          -2.632  -6.904  -0.011  0.00  0.00     0.018 A 
ATOM     15  C14 <0> d          -2.780  -8.273  -0.025  0.00  0.00     0.043 A 
ATOM     16  C13 <0> d          -1.662  -9.095  -0.035  0.00  0.00     0.116 A 
ATOM     17  C12 <0> d          -0.389  -8.544  -0.039  0.00  0.00     0.043 A 
ATOM     18  F1  <0> d          -1.814 -10.437  -0.043  0.00  0.00    -0.206 F 
ATOM     19  C11 <0> d          -0.227  -7.176  -0.032  0.00  0.00     0.018 A 
ENDBRANCH  11  13
ENDBRANCH  10  11
ENDBRANCH   9  10
ENDBRANCH   7   9
ENDBRANCH   5   7
BRANCH   4  20
ATOM     20  N1  <0> d           3.647  -0.624  -0.038  0.00  0.00    -0.251 N 
ATOM     21  C22 <0> d           4.294  -0.977   1.078  0.00  0.00     0.236 A 
ATOM     22  C21 <0> d           5.581  -1.681   0.714  0.00  0.00     0.100 A 
ATOM     23  O5  <0> d           3.908  -0.765   2.207  0.00  0.00    -0.272 OA
ATOM     24  C17 <0> d           5.569  -1.665  -0.843  0.00  0.00     0.100 A 
ATOM     25  C20 <0> d           6.787  -0.718   1.059  0.00  0.00     0.022 C 
ATOM     26  C16 <0> d           4.273  -0.959  -1.172  0.00  0.00     0.236 A 
ATOM     27  C18 <0> d           6.752  -0.722  -1.228  0.00  0.00     0.022 C 
ATOM     28  O4  <0> d           3.865  -0.730  -2.291  0.00  0.00    -0.272 OA
ATOM     29  C24 <0> d           6.294   0.665  -0.759  0.00  0.00    -0.025 C 
ATOM     30  C19 <0> d           7.785  -1.084  -0.100  0.00  0.00     0.018 C 
ATOM     31  C23 <0> d           6.324   0.663   0.579  0.00  0.00    -0.025 C 
ENDBRANCH   4  20
TORSDOF 6
