REMARK  5 active torsions:
REMARK  status: ('A' for Active; 'I' for Inactive)
REMARK    1  A    between atoms: C4_4  and  C7_7 
REMARK    2  A    between atoms: C7_7  and  C8_8 
REMARK    3  A    between atoms: C7_7  and  N2_31 
REMARK       I    between atoms: N1_16  and  C18_19 
REMARK    4  A    between atoms: C18_19  and  C19_21 
REMARK    5  A    between atoms: C20_22  and  C21_23 
ROOT
ATOM      1  C14 <0> d          -0.891   0.039   2.256  0.00  0.00     0.256 C 
ATOM      2  C15 <0> d          -2.097  -0.372   3.108  0.00  0.00     0.154 C 
ATOM      3  N1  <0> d          -2.239  -1.834   3.042  0.00  0.00    -0.345 N 
ATOM      4  C16 <0> d          -2.259  -2.472   1.717  0.00  0.00     0.154 C 
ATOM      5  C17 <0> d          -1.047  -1.979   0.920  0.00  0.00     0.256 C 
ATOM      6  C18 <0> d          -2.348  -2.570   4.166  0.00  0.00     0.243 C 
ATOM      7  O1  <0> d          -2.235  -2.038   5.254  0.00  0.00    -0.268 OA
ATOM      8  N2  <0> d          -1.068  -0.500   0.891  0.00  0.00    -0.056 N 
ATOM      9  H25 <0> d          -1.975  -0.188   0.524  0.00  0.00     0.281 HD
ENDROOT
BRANCH   8  10
ATOM     10  C7  <0> d           0.005   0.002   0.007  0.00  0.00     0.254 C 
BRANCH  10  11
ATOM     11  C4  <0> d          -0.021   1.509   0.015  0.00  0.00    -0.023 A 
ATOM     12  C3  <0> d           1.164   2.220   0.010  0.00  0.00     0.009 A 
ATOM     13  C2  <0> d           1.141   3.603   0.017  0.00  0.00     0.001 A 
ATOM     14  C1  <0> d          -0.068   4.273   0.029  0.00  0.00     0.000 A 
ATOM     15  C6  <0> d          -1.253   3.562   0.033  0.00  0.00     0.001 A 
ATOM     16  C5  <0> d          -1.230   2.180   0.021  0.00  0.00     0.009 A 
ENDBRANCH  10  11
BRANCH  10  17
ATOM     17  C8  <0> d          -0.243  -0.497  -1.393  0.00  0.00    -0.023 A 
ATOM     18  C13 <0> d           0.819  -0.902  -2.180  0.00  0.00     0.009 A 
ATOM     19  C12 <0> d           0.591  -1.360  -3.464  0.00  0.00     0.001 A 
ATOM     20  C11 <0> d          -0.698  -1.414  -3.961  0.00  0.00     0.000 A 
ATOM     21  C10 <0> d          -1.759  -1.010  -3.173  0.00  0.00     0.001 A 
ATOM     22  C9  <0> d          -1.533  -0.556  -1.887  0.00  0.00     0.009 A 
ENDBRANCH  10  17
ENDBRANCH   8  10
BRANCH   6  23
ATOM     23  C19 <0> d          -2.604  -4.009   4.077  0.00  0.00     0.075 C 
ATOM     24  C20 <0> d          -2.813  -4.727   5.199  0.00  0.00     0.017 C 
BRANCH  24  25
ATOM     25  C21 <0> d          -3.070  -6.173   5.109  0.00  0.00    -0.034 A 
ATOM     26  C26 <0> d          -3.103  -6.805   3.862  0.00  0.00     0.037 A 
ATOM     27  C25 <0> d          -3.339  -8.162   3.786  0.00  0.00     0.056 A 
ATOM     28  C24 <0> d          -3.553  -8.897   4.942  0.00  0.00     0.055 A 
ATOM     29 Cl1  <0> d          -3.373  -8.951   2.240  0.00  0.00    -0.083 Cl
ATOM     30  C23 <0> d          -3.527  -8.276   6.180  0.00  0.00     0.026 A 
ATOM     31 Cl2  <0> d          -3.855 -10.603   4.838  0.00  0.00    -0.083 Cl
ATOM     32  C22 <0> d          -3.287  -6.922   6.271  0.00  0.00     0.013 A 
ENDBRANCH  24  25
ENDBRANCH   6  23
TORSDOF 5
