REMARK  12 active torsions:
REMARK  status: ('A' for Active; 'I' for Inactive)
REMARK    1  A    between atoms: C2_2  and  C3_3 
REMARK    2  A    between atoms: C3_3  and  C4_4 
REMARK    3  A    between atoms: C4_4  and  C5_5 
REMARK    4  A    between atoms: C5_5  and  C6_6 
REMARK    5  A    between atoms: C6_6  and  C7_7 
REMARK    6  A    between atoms: C7_7  and  C8_8 
REMARK    7  A    between atoms: C8_8  and  N1_9 
REMARK    8  A    between atoms: C11_13  and  C12_14 
REMARK    9  A    between atoms: C15_17  and  N2_20 
REMARK   10  A    between atoms: N3_25  and  C22_28 
REMARK   11  A    between atoms: C22_28  and  C23_29 
REMARK   12  A    between atoms: C23_29  and  C24_30 
ROOT
ATOM      1  N1  <0> d          -1.521   1.402   5.377  0.00  0.00    -0.265 N 
ATOM      2  C9  <0> d          -1.561   2.631   5.932  0.00  0.00     0.267 A 
ATOM      3  O1  <0> d          -2.014   2.798   7.048  0.00  0.00    -0.267 OA
ATOM      4  C10 <0> d          -1.040   3.768   5.147  0.00  0.00     0.101 A 
ATOM      5  C11 <0> d          -1.047   5.056   5.650  0.00  0.00     0.034 C 
ATOM      6  C20 <0> d          -0.505   3.467   3.805  0.00  0.00     0.267 A 
ATOM      7  O2  <0> d          -0.054   4.350   3.100  0.00  0.00    -0.267 OA
ATOM      8  N3  <0> d          -0.535   2.187   3.379  0.00  0.00    -0.265 N 
ATOM      9  C21 <0> d          -1.025   1.204   4.147  0.00  0.00     0.334 A 
ATOM     10  O3  <0> d          -1.018   0.072   3.706  0.00  0.00    -0.246 OA
ENDROOT
BRANCH   5  11
ATOM     11  C12 <0> d          -1.751   5.350   6.896  0.00  0.00    -0.035 A 
ATOM     12  C17 <0> d          -1.135   6.133   7.886  0.00  0.00     0.013 A 
ATOM     13  C16 <0> d          -1.796   6.404   9.047  0.00  0.00     0.030 A 
ATOM     14  C15 <0> d          -3.082   5.907   9.253  0.00  0.00     0.029 A 
ATOM     15  C14 <0> d          -3.699   5.129   8.274  0.00  0.00     0.030 A 
ATOM     16  C13 <0> d          -3.048   4.855   7.107  0.00  0.00     0.013 A 
BRANCH  14  17
ATOM     17  N2  <0> d          -3.751   6.187  10.437  0.00  0.00    -0.390 N 
ATOM     18  C18 <0> d          -3.110   7.013  11.463  0.00  0.00     0.149 C 
ATOM     19  C19 <0> d          -5.098   5.656  10.660  0.00  0.00     0.149 C 
ENDBRANCH  14  17
ENDBRANCH   5  11
BRANCH   1  20
ATOM     20  C8  <0> d          -2.033   0.258   6.135  0.00  0.00     0.137 C 
BRANCH  20  21
ATOM     21  C7  <0> d          -0.900  -0.353   6.962  0.00  0.00     0.020 C 
BRANCH  21  22
ATOM     22  C6  <0> d          -1.434  -1.548   7.754  0.00  0.00     0.002 C 
BRANCH  22  23
ATOM     23  C5  <0> d          -0.301  -2.159   8.581  0.00  0.00     0.000 C 
BRANCH  23  24
ATOM     24  C4  <0> d          -0.835  -3.355   9.373  0.00  0.00     0.000 C 
BRANCH  24  25
ATOM     25  C3  <0> d           0.298  -3.966  10.200  0.00  0.00    -0.000 C 
BRANCH  25  26
ATOM     26  C2  <0> d          -0.236  -5.161  10.992  0.00  0.00    -0.005 C 
ATOM     27  C1  <0> d           0.896  -5.772  11.819  0.00  0.00     0.005 C 
ENDBRANCH  25  26
ENDBRANCH  24  25
ENDBRANCH  23  24
ENDBRANCH  22  23
ENDBRANCH  21  22
ENDBRANCH  20  21
ENDBRANCH   1  20
BRANCH   8  28
ATOM     28  C22 <0> d          -0.015   1.863   2.048  0.00  0.00     0.137 C 
BRANCH  28  29
ATOM     29  C23 <0> d          -1.145   1.963   1.021  0.00  0.00     0.020 C 
BRANCH  29  30
ATOM     30  C24 <0> d          -0.602   1.625  -0.369  0.00  0.00    -0.003 C 
ATOM     31  C25 <0> d          -1.732   1.724  -1.396  0.00  0.00     0.005 C 
ENDBRANCH  29  30
ENDBRANCH  28  29
ENDBRANCH   8  28
TORSDOF 12
