@<TRIPOS>MOLECULE
ZINC08431328
   47    48     0     0     0
SMALL
USER_CHARGES
1-butyl-3-(3-chloropropyl)-5-[(2,4-dichlorophenyl)aminomethylene]hexahydropyrimidine-2,4,6-trione
@<TRIPOS>ATOM
      1 C1          9.7384    0.7488    2.5570 C.3       1 <0>        -0.1524
      2 C2          9.2110    0.6235    1.1263 C.3       1 <0>        -0.1192
      3 C3          7.8626   -0.0995    1.1413 C.3       1 <0>        -0.1334
      4 C4          7.3352   -0.2248   -0.2894 C.3       1 <0>         0.1089
      5 N1          6.0441   -0.9171   -0.2750 N.am      1 <0>        -0.5563
      6 C5          4.9107   -0.1954   -0.1553 C.2       1 <0>         0.5810
      7 O1          4.9491    1.0169   -0.0601 O.2       1 <0>        -0.5149
      8 C6          3.6248   -0.9151   -0.1434 C.2       1 <0>        -0.4031
      9 C7          2.4223   -0.2424   -0.0234 C.2       1 <0>         0.3208
     10 N2          2.3994    1.1062   -0.0402 N.pl3     1 <0>        -0.6031
     11 C8          1.1766    1.7849   -0.0307 C.ar      1 <0>         0.1485
     12 C9         -0.0149    1.0717   -0.0038 C.ar      1 <0>        -0.1355
     13 C10        -1.2210    1.7443   -0.0007 C.ar      1 <0>        -0.0655
     14 C11        -1.2438    3.1282   -0.0127 C.ar      1 <0>        -0.0428
     15 C12        -0.0588    3.8421   -0.0394 C.ar      1 <0>        -0.0664
     16 C13         1.1514    3.1745   -0.0485 C.ar      1 <0>        -0.0578
     17 Cl1         2.6379    4.0705   -0.0815 Cl        1 <0>        -0.0334
     18 Cl2        -2.7621    3.9697   -0.0019 Cl        1 <0>        -0.0444
     19 C14         3.6764   -2.3834   -0.2587 C.2       1 <0>         0.5883
     20 O2          2.6566   -3.0469   -0.2514 O.2       1 <0>        -0.5007
     21 N3          4.8846   -2.9714   -0.3779 N.am      1 <0>        -0.5586
     22 C15         6.0162   -2.2530   -0.3815 C.2       1 <0>         0.7101
     23 O3          7.0729   -2.8441   -0.4865 O.2       1 <0>        -0.5237
     24 C16         4.9620   -4.4293   -0.5001 C.3       1 <0>         0.1128
     25 C17         5.0673   -5.0529    0.8931 C.3       1 <0>        -0.1461
     26 C18         5.1482   -6.5754    0.7655 C.3       1 <0>        -0.0285
     27 Cl3         5.2722   -7.3103    2.4072 Cl        1 <0>        -0.1786
     28 H1          9.8639   -0.2452    2.9864 H         1 <0>         0.0548
     29 H2         10.6990    1.2638    2.5463 H         1 <0>         0.0572
     30 H3          9.0282    1.3170    3.1577 H         1 <0>         0.0538
     31 H4          9.9212    0.0552    0.5257 H         1 <0>         0.0668
     32 H5          9.0855    1.6174    0.6970 H         1 <0>         0.0655
     33 H6          7.1524    0.4687    1.7420 H         1 <0>         0.0674
     34 H7          7.9881   -1.0935    1.5707 H         1 <0>         0.0697
     35 H8          8.0454   -0.7931   -0.8900 H         1 <0>         0.1025
     36 H9          7.2097    0.7691   -0.7187 H         1 <0>         0.1008
     37 H10         1.5018   -0.7969    0.0838 H         1 <0>         0.1856
     38 H11         3.2309    1.6053   -0.0590 H         1 <0>         0.4363
     39 H12         0.0018   -0.0080    0.0101 H         1 <0>         0.1531
     40 H13        -2.1477    1.1898    0.0157 H         1 <0>         0.1531
     41 H14        -0.0796    4.9218   -0.0529 H         1 <0>         0.1554
     42 H15         4.0659   -4.8003   -0.9975 H         1 <0>         0.1056
     43 H16         5.8408   -4.6986   -1.0861 H         1 <0>         0.1055
     44 H17         5.9634   -4.6818    1.3905 H         1 <0>         0.0825
     45 H18         4.1885   -4.7836    1.4790 H         1 <0>         0.0824
     46 H19         4.2521   -6.9465    0.2681 H         1 <0>         0.0980
     47 H20         6.0269   -6.8448    0.1795 H         1 <0>         0.0981
@<TRIPOS>BOND
     1    1    2 1
     2    1   28 1
     3    1   29 1
     4    1   30 1
     5    2    3 1
     6    2   31 1
     7    2   32 1
     8    3    4 1
     9    3   33 1
    10    3   34 1
    11    4    5 1
    12    4   35 1
    13    4   36 1
    14    5   22 am
    15    5    6 am
    16    6    7 2
    17    6    8 1
    18    8    9 2
    19    8   19 1
    20    9   10 1
    21    9   37 1
    22   10   11 1
    23   10   38 1
    24   11   16 ar
    25   11   12 ar
    26   12   13 ar
    27   12   39 1
    28   13   14 ar
    29   13   40 1
    30   14   15 ar
    31   14   18 1
    32   15   16 ar
    33   15   41 1
    34   16   17 1
    35   19   20 2
    36   19   21 am
    37   21   22 am
    38   21   24 1
    39   22   23 2
    40   24   25 1
    41   24   42 1
    42   24   43 1
    43   25   26 1
    44   25   44 1
    45   25   45 1
    46   26   27 1
    47   26   46 1
    48   26   47 1
