@<TRIPOS>MOLECULE
ZINC08431324
   52    52     0     0     0
SMALL
USER_CHARGES
propyl 4-nonanoylaminobenzoate
@<TRIPOS>ATOM
      1 C1         10.9328    3.3895    0.3450 C.3       1 <0>        -0.1546
      2 C2          9.8456    2.3130    0.3627 C.3       1 <0>        -0.1259
      3 C3          8.4703    2.9755    0.2609 C.3       1 <0>        -0.1219
      4 C4          7.3831    1.8991    0.2786 C.3       1 <0>        -0.1206
      5 C5          6.0078    2.5616    0.1769 C.3       1 <0>        -0.1208
      6 C6          4.9206    1.4851    0.1946 C.3       1 <0>        -0.1201
      7 C7          3.5452    2.1476    0.0929 C.3       1 <0>        -0.1065
      8 C8          2.4581    1.0712    0.1106 C.3       1 <0>        -0.1393
      9 C9          1.1034    1.7237    0.0104 C.2       1 <0>         0.5126
     10 O1          1.0160    2.9308   -0.0675 O.2       1 <0>        -0.5119
     11 N1         -0.0111    0.9658    0.0074 N.am      1 <0>        -0.6772
     12 C10        -1.2664    1.5722    0.0050 C.ar      1 <0>         0.1823
     13 C11        -1.4596    2.7654   -0.6845 C.ar      1 <0>        -0.1378
     14 C12        -2.6989    3.3644   -0.6930 C.ar      1 <0>        -0.0398
     15 C13        -3.7616    2.7778    0.0007 C.ar      1 <0>        -0.1464
     16 C14        -3.5625    1.5818    0.6967 C.ar      1 <0>        -0.0324
     17 C15        -2.3218    0.9859    0.6968 C.ar      1 <0>        -0.1590
     18 C16        -5.0896    3.4190   -0.0022 C.2       1 <0>         0.5119
     19 O2         -6.0123    2.9078    0.6007 O.2       1 <0>        -0.5081
     20 O3         -5.2797    4.5718   -0.6736 O.3       1 <0>        -0.3540
     21 C17        -6.6126    5.1462   -0.6328 C.3       1 <0>         0.0667
     22 C18        -6.6345    6.4422   -1.4457 C.3       1 <0>        -0.1245
     23 C19        -8.0390    7.0475   -1.4028 C.3       1 <0>        -0.1511
     24 H1         10.7907    4.0633    1.1899 H         1 <0>         0.0535
     25 H2         11.9126    2.9175    0.4174 H         1 <0>         0.0534
     26 H3         10.8695    3.9545   -0.5850 H         1 <0>         0.0534
     27 H4          9.9089    1.7480    1.2927 H         1 <0>         0.0602
     28 H5          9.9877    1.6392   -0.4822 H         1 <0>         0.0602
     29 H6          8.4070    3.5405   -0.6691 H         1 <0>         0.0610
     30 H7          8.3282    3.6494    1.1058 H         1 <0>         0.0610
     31 H8          7.4464    1.3341    1.2086 H         1 <0>         0.0608
     32 H9          7.5252    1.2252   -0.5663 H         1 <0>         0.0608
     33 H10         5.9445    3.1266   -0.7531 H         1 <0>         0.0625
     34 H11         5.8657    3.2354    1.0218 H         1 <0>         0.0625
     35 H12         4.9839    0.9201    1.1246 H         1 <0>         0.0629
     36 H13         5.0627    0.8113   -0.6503 H         1 <0>         0.0630
     37 H14         3.4820    2.7126   -0.8371 H         1 <0>         0.0714
     38 H15         3.4031    2.8215    0.9378 H         1 <0>         0.0713
     39 H16         2.5213    0.5062    1.0406 H         1 <0>         0.0991
     40 H17         2.6002    0.3974   -0.7343 H         1 <0>         0.0990
     41 H18         0.0603   -0.0015    0.0028 H         1 <0>         0.4153
     42 H19        -0.6372    3.2198   -1.2170 H         1 <0>         0.1483
     43 H20        -2.8492    4.2881   -1.2320 H         1 <0>         0.1423
     44 H21        -4.3814    1.1258    1.2333 H         1 <0>         0.1427
     45 H22        -2.1672    0.0619    1.2343 H         1 <0>         0.1372
     46 H23        -7.3260    4.4394   -1.0566 H         1 <0>         0.0717
     47 H24        -6.8842    5.3610    0.4007 H         1 <0>         0.0716
     48 H25        -5.9211    7.1490   -1.0219 H         1 <0>         0.0749
     49 H26        -6.3629    6.2275   -2.4793 H         1 <0>         0.0747
     50 H27        -8.7524    6.3407   -1.8265 H         1 <0>         0.0586
     51 H28        -8.3106    7.2623   -0.3692 H         1 <0>         0.0587
     52 H29        -8.0546    7.9708   -1.9819 H         1 <0>         0.0664
@<TRIPOS>BOND
     1    1    2 1
     2    1   24 1
     3    1   25 1
     4    1   26 1
     5    2    3 1
     6    2   27 1
     7    2   28 1
     8    3    4 1
     9    3   29 1
    10    3   30 1
    11    4    5 1
    12    4   31 1
    13    4   32 1
    14    5    6 1
    15    5   33 1
    16    5   34 1
    17    6    7 1
    18    6   35 1
    19    6   36 1
    20    7    8 1
    21    7   37 1
    22    7   38 1
    23    8    9 1
    24    8   39 1
    25    8   40 1
    26    9   10 2
    27    9   11 am
    28   11   12 1
    29   11   41 1
    30   12   17 ar
    31   12   13 ar
    32   13   14 ar
    33   13   42 1
    34   14   15 ar
    35   14   43 1
    36   15   16 ar
    37   15   18 1
    38   16   17 ar
    39   16   44 1
    40   17   45 1
    41   18   19 2
    42   18   20 1
    43   20   21 1
    44   21   22 1
    45   21   46 1
    46   21   47 1
    47   22   23 1
    48   22   48 1
    49   22   49 1
    50   23   50 1
    51   23   51 1
    52   23   52 1
