@<TRIPOS>MOLECULE
ZINC08431322
   67    68     0     0     0
SMALL
USER_CHARGES
4-[(1-butyl-3-octyl-2,4,6-trioxo-hexahydropyrimidin-5-ylidene)methylamino]benzenesulfonamide
@<TRIPOS>ATOM
      1 C1        -14.8743   -0.0181   -4.6669 C.3       1 <0>        -0.1543
      2 C2        -14.2888    0.2183   -3.2733 C.3       1 <0>        -0.1260
      3 C3        -12.9487    0.9456   -3.3998 C.3       1 <0>        -0.1213
      4 C4        -12.3632    1.1820   -2.0062 C.3       1 <0>        -0.1207
      5 C5        -11.0231    1.9093   -2.1327 C.3       1 <0>        -0.1187
      6 C6        -10.4376    2.1457   -0.7390 C.3       1 <0>        -0.1148
      7 C7         -9.0975    2.8730   -0.8655 C.3       1 <0>        -0.1326
      8 C8         -8.5119    3.1094    0.5281 C.3       1 <0>         0.1106
      9 N1         -7.2288    3.8059    0.4070 N.am      1 <0>        -0.5588
     10 C9         -6.0957    3.0836    0.2877 C.2       1 <0>         0.5864
     11 O1         -6.1278    1.8674    0.2804 O.2       1 <0>        -0.4996
     12 C10        -4.8171    3.8076    0.1729 C.2       1 <0>        -0.3980
     13 C11        -3.6150    3.1347    0.0534 C.2       1 <0>         0.3179
     14 N2         -2.4533    3.8206    0.0709 N.pl3     1 <0>        -0.6078
     15 C12        -1.2360    3.1339    0.0616 C.ar      1 <0>         0.1975
     16 C13        -1.2204    1.7452    0.0287 C.ar      1 <0>        -0.1837
     17 C14        -0.0159    1.0696    0.0254 C.ar      1 <0>         0.0211
     18 C15         1.1739    1.7742    0.0433 C.ar      1 <0>        -0.6981
     19 C16         1.1620    3.1568    0.0704 C.ar      1 <0>         0.0192
     20 C17        -0.0390    3.8385    0.0796 C.ar      1 <0>        -0.1658
     21 S1          2.7084    0.9084    0.0311 S.o2      1 <0>         2.7040
     22 O2          3.6723    1.7823    0.6026 O.2       1 <0>        -0.9607
     23 O3          2.4484   -0.3864    0.5554 O.2       1 <0>        -0.9603
     24 N3          3.1400    0.6994   -1.5540 N.pl3     1 <0>        -1.2497
     25 C18        -4.8764    5.2801    0.1848 C.2       1 <0>         0.5831
     26 O4         -3.8632    5.9470    0.0897 O.2       1 <0>        -0.5197
     27 N4         -6.0842    5.8687    0.3046 N.am      1 <0>        -0.5569
     28 C19        -7.2082    5.1461    0.4106 C.2       1 <0>         0.7090
     29 O5         -8.2648    5.7375    0.5153 O.2       1 <0>        -0.5227
     30 C20        -6.1695    7.3311    0.3195 C.3       1 <0>         0.1087
     31 C21        -6.3383    7.8468   -1.1110 C.3       1 <0>        -0.1329
     32 C22        -6.4273    9.3741   -1.0955 C.3       1 <0>        -0.1193
     33 C23        -6.5961    9.8897   -2.5260 C.3       1 <0>        -0.1523
     34 H1        -15.8290   -0.5363   -4.5768 H         1 <0>         0.0534
     35 H2        -15.0263    0.9397   -5.1644 H         1 <0>         0.0532
     36 H3        -14.1847   -0.6263   -5.2524 H         1 <0>         0.0532
     37 H4        -14.1368   -0.7396   -2.7758 H         1 <0>         0.0605
     38 H5        -14.9784    0.8264   -2.6878 H         1 <0>         0.0605
     39 H6        -13.1007    1.9034   -3.8973 H         1 <0>         0.0605
     40 H7        -12.2591    0.3375   -3.9852 H         1 <0>         0.0605
     41 H8        -12.2112    0.2241   -1.5087 H         1 <0>         0.0618
     42 H9        -13.0528    1.7901   -1.4207 H         1 <0>         0.0618
     43 H10       -11.1751    2.8672   -2.6302 H         1 <0>         0.0614
     44 H11       -10.3335    1.3012   -2.7181 H         1 <0>         0.0614
     45 H12       -10.2856    1.1879   -0.2415 H         1 <0>         0.0666
     46 H13       -11.1272    2.7538   -0.1536 H         1 <0>         0.0667
     47 H14        -9.2495    3.8309   -1.3630 H         1 <0>         0.0684
     48 H15        -8.4079    2.2649   -1.4510 H         1 <0>         0.0681
     49 H16        -8.3599    2.1516    1.0256 H         1 <0>         0.1014
     50 H17        -9.2015    3.7175    1.1136 H         1 <0>         0.1014
     51 H18        -3.6061    2.0601   -0.0539 H         1 <0>         0.1857
     52 H19        -2.4629    4.7904    0.0899 H         1 <0>         0.4355
     53 H20        -2.1492    1.1944    0.0102 H         1 <0>         0.1447
     54 H21        -0.0031   -0.0101    0.0043 H         1 <0>         0.1544
     55 H22         2.0930    3.7041    0.0840 H         1 <0>         0.1541
     56 H23        -0.0475    4.9183    0.1011 H         1 <0>         0.1451
     57 H24         2.5683    1.0374   -2.2609 H         1 <0>         0.4169
     58 H25         3.9645    0.2389   -1.7754 H         1 <0>         0.4225
     59 H26        -7.0254    7.6390    0.9201 H         1 <0>         0.1026
     60 H27        -5.2567    7.7439    0.7492 H         1 <0>         0.1005
     61 H28        -5.4824    7.5388   -1.7116 H         1 <0>         0.0667
     62 H29        -7.2510    7.4340   -1.5407 H         1 <0>         0.0695
     63 H30        -7.2832    9.6820   -0.4949 H         1 <0>         0.0670
     64 H31        -5.5146    9.7869   -0.6658 H         1 <0>         0.0656
     65 H32        -6.6595   10.9778   -2.5149 H         1 <0>         0.0574
     66 H33        -5.7402    9.5818   -3.1266 H         1 <0>         0.0536
     67 H34        -7.5088    9.4770   -2.9557 H         1 <0>         0.0547
@<TRIPOS>BOND
     1    1    2 1
     2    1   34 1
     3    1   35 1
     4    1   36 1
     5    2    3 1
     6    2   37 1
     7    2   38 1
     8    3    4 1
     9    3   39 1
    10    3   40 1
    11    4    5 1
    12    4   41 1
    13    4   42 1
    14    5    6 1
    15    5   43 1
    16    5   44 1
    17    6    7 1
    18    6   45 1
    19    6   46 1
    20    7    8 1
    21    7   47 1
    22    7   48 1
    23    8    9 1
    24    8   49 1
    25    8   50 1
    26    9   28 am
    27    9   10 am
    28   10   11 2
    29   10   12 1
    30   12   13 2
    31   12   25 1
    32   13   14 1
    33   13   51 1
    34   14   15 1
    35   14   52 1
    36   15   20 ar
    37   15   16 ar
    38   16   17 ar
    39   16   53 1
    40   17   18 ar
    41   17   54 1
    42   18   19 ar
    43   18   21 1
    44   19   20 ar
    45   19   55 1
    46   20   56 1
    47   21   22 2
    48   21   23 2
    49   21   24 1
    50   24   57 1
    51   24   58 1
    52   25   26 2
    53   25   27 am
    54   27   28 am
    55   27   30 1
    56   28   29 2
    57   30   31 1
    58   30   59 1
    59   30   60 1
    60   31   32 1
    61   31   61 1
    62   31   62 1
    63   32   33 1
    64   32   63 1
    65   32   64 1
    66   33   65 1
    67   33   66 1
    68   33   67 1
