@<TRIPOS>MOLECULE
ZINC08431319
   56    59     0     0     0
SMALL
USER_CHARGES
1-(4-benzhydrylpiperazin-1-yl)-3-(3,4-dichlorophenyl)-prop-2-en-1-one
@<TRIPOS>ATOM
      1 C1         -0.0680    4.2733    0.0285 C.ar      1 <0>        -0.0914
      2 C2          1.1407    3.6026    0.0169 C.ar      1 <0>        -0.1029
      3 C3          1.1642    2.2205    0.0103 C.ar      1 <0>        -0.0863
      4 C4         -0.0210    1.5090    0.0149 C.ar      1 <0>        -0.1336
      5 C5         -1.2298    2.1797    0.0208 C.ar      1 <0>        -0.1225
      6 C6         -1.2532    3.5618    0.0327 C.ar      1 <0>        -0.1020
      7 C7          0.0046    0.0023    0.0073 C.3       1 <0>         0.1377
      8 C8         -0.2431   -0.4973   -1.3927 C.ar      1 <0>        -0.1331
      9 C9         -1.5326   -0.5564   -1.8874 C.ar      1 <0>        -0.1230
     10 C10        -1.7593   -1.0101   -3.1734 C.ar      1 <0>        -0.1012
     11 C11        -0.6976   -1.4141   -3.9610 C.ar      1 <0>        -0.0919
     12 C12         0.5913   -1.3604   -3.4643 C.ar      1 <0>        -0.1025
     13 C13         0.8185   -0.9017   -2.1802 C.ar      1 <0>        -0.0865
     14 C14        -0.8913    0.0392    2.2565 C.3       1 <0>        -0.0182
     15 C15        -2.0974   -0.3718    3.1076 C.3       1 <0>         0.0905
     16 N1         -2.2392   -1.8343    3.0417 N.am      1 <0>        -0.6307
     17 C16        -2.2592   -2.4724    1.7167 C.3       1 <0>         0.0844
     18 C17        -1.0467   -1.9787    0.9203 C.3       1 <0>        -0.0196
     19 C18        -2.3483   -2.5701    4.1656 C.2       1 <0>         0.5638
     20 O1         -2.2345   -2.0385    5.2544 O.2       1 <0>        -0.5147
     21 C19        -2.6038   -4.0088    4.0766 C.2       1 <0>        -0.2397
     22 C20        -2.8127   -4.7271    5.1985 C.2       1 <0>         0.0178
     23 C21        -3.0696   -6.1734    5.1091 C.ar      1 <0>        -0.0766
     24 C22        -3.2867   -6.9216    6.2709 C.ar      1 <0>        -0.0689
     25 C23        -3.5267   -8.2758    6.1803 C.ar      1 <0>        -0.0981
     26 C24        -3.5528   -8.8970    4.9422 C.ar      1 <0>        -0.0150
     27 C25        -3.3386   -8.1623    3.7862 C.ar      1 <0>        -0.0367
     28 C26        -3.1034   -6.8049    3.8619 C.ar      1 <0>        -0.0790
     29 Cl1        -3.3735   -8.9506    2.2399 Cl        1 <0>        -0.0370
     30 Cl2        -3.8547  -10.6033    4.8380 Cl        1 <0>        -0.0306
     31 H1         -0.0864    5.3531    0.0340 H         1 <0>         0.1365
     32 H2          2.0666    4.1585    0.0133 H         1 <0>         0.1376
     33 H3          2.1085    1.6965    0.0012 H         1 <0>         0.1330
     34 H4         -2.1558    1.6239    0.0198 H         1 <0>         0.1143
     35 H5         -2.1976    4.0858    0.0414 H         1 <0>         0.1360
     36 H6          0.9787   -0.3463    0.3504 H         1 <0>         0.1499
     37 H7         -2.3625   -0.2447   -1.2706 H         1 <0>         0.1140
     38 H8         -2.7664   -1.0525   -3.5613 H         1 <0>         0.1359
     39 H9         -0.8752   -1.7721   -4.9644 H         1 <0>         0.1364
     40 H10         1.4207   -1.6763   -4.0796 H         1 <0>         0.1376
     41 H11         1.8255   -0.8597   -1.7921 H         1 <0>         0.1331
     42 H12         0.0216   -0.3499    2.7073 H         1 <0>         0.1381
     43 H13        -0.8367    1.1266    2.2041 H         1 <0>         0.1441
     44 H14        -2.9988    0.1014    2.7181 H         1 <0>         0.0941
     45 H15        -1.9408   -0.0654    4.1419 H         1 <0>         0.1392
     46 H16        -3.1761   -2.2011    1.1934 H         1 <0>         0.0979
     47 H17        -2.2060   -3.5551    1.8308 H         1 <0>         0.1333
     48 H18        -1.1047   -2.3547   -0.1012 H         1 <0>         0.1444
     49 H19        -0.1314   -2.3397    1.3893 H         1 <0>         0.1389
     50 H20        -2.6250   -4.4948    3.1124 H         1 <0>         0.1340
     51 H21        -2.7916   -4.2410    6.1627 H         1 <0>         0.1467
     52 H22        -3.2667   -6.4390    7.2369 H         1 <0>         0.1491
     53 H23        -3.6944   -8.8542    7.0768 H         1 <0>         0.1528
     54 H24        -2.9413   -6.2324    2.9605 H         1 <0>         0.1434
     55 N2         -1.0682   -0.5000    0.8906 N.4       1 <0>        -0.3927
     56 H25        -1.9752   -0.1877    0.5244 H         1 <0>         0.4198
@<TRIPOS>BOND
     1    1    6 ar
     2    1    2 ar
     3    1   31 1
     4    2    3 ar
     5    2   32 1
     6    3    4 ar
     7    3   33 1
     8    4    5 ar
     9    4    7 1
    10    5    6 ar
    11    5   34 1
    12    6   35 1
    13    7    8 1
    14    7   36 1
    15    7   55 1
    16    8   13 ar
    17    8    9 ar
    18    9   10 ar
    19    9   37 1
    20   10   11 ar
    21   10   38 1
    22   11   12 ar
    23   11   39 1
    24   12   13 ar
    25   12   40 1
    26   13   41 1
    27   14   15 1
    28   14   42 1
    29   14   43 1
    30   14   55 1
    31   15   16 1
    32   15   44 1
    33   15   45 1
    34   16   17 1
    35   16   19 am
    36   17   18 1
    37   17   46 1
    38   17   47 1
    39   18   48 1
    40   18   49 1
    41   18   55 1
    42   19   20 2
    43   19   21 1
    44   21   22 2
    45   21   50 1
    46   22   23 1
    47   22   51 1
    48   23   28 ar
    49   23   24 ar
    50   24   25 ar
    51   24   52 1
    52   25   26 ar
    53   25   53 1
    54   26   27 ar
    55   26   30 1
    56   27   28 ar
    57   27   29 1
    58   28   54 1
    59   55   56 1
