REMARK  14 active torsions:
REMARK  status: ('A' for Active; 'I' for Inactive)
REMARK    1  A    between atoms: C2_2  and  C3_3 
REMARK    2  A    between atoms: C3_3  and  C4_4 
REMARK    3  A    between atoms: C4_4  and  C5_5 
REMARK    4  A    between atoms: C5_5  and  C6_6 
REMARK    5  A    between atoms: C6_6  and  C7_7 
REMARK    6  A    between atoms: C7_7  and  C8_8 
REMARK    7  A    between atoms: C8_8  and  N1_9 
REMARK    8  A    between atoms: C10_12  and  C11_13 
REMARK    9  A    between atoms: N2_14  and  C12_15 
REMARK   10  A    between atoms: C13_16  and  C16_20 
REMARK   11  A    between atoms: C16_20  and  O3_22 
REMARK   12  A    between atoms: N3_26  and  C20_29 
REMARK   13  A    between atoms: C20_29  and  C21_30 
REMARK   14  A    between atoms: C21_30  and  C22_31 
ROOT
ATOM      1  N1  <0> d          -1.172   1.842  -0.364  0.00  0.00    -0.265 N 
ATOM      2  C9  <0> d          -1.272   3.166  -0.127  0.00  0.00     0.268 A 
ATOM      3  O1  <0> d          -2.346   3.675   0.132  0.00  0.00    -0.267 OA
ATOM      4  C10 <0> d          -0.045   3.980  -0.195  0.00  0.00     0.116 A 
ATOM      5  C18 <0> d           1.210   3.277  -0.514  0.00  0.00     0.268 A 
ATOM      6  O4  <0> d           2.264   3.881  -0.588  0.00  0.00    -0.267 OA
ATOM      7  N3  <0> d           1.160   1.945  -0.723  0.00  0.00    -0.265 N 
ATOM      8  C19 <0> d           0.006   1.267  -0.645  0.00  0.00     0.334 A 
ATOM      9  O5  <0> d           0.028   0.068  -0.844  0.00  0.00    -0.246 OA
ENDROOT
BRANCH   4  10
ATOM     10  C11 <0> d          -0.070   5.344   0.032  0.00  0.00     0.111 C 
ATOM     11  N2  <0> d           1.086   6.034   0.127  0.00  0.00    -0.358 N 
ATOM     12  H19 <0> d           1.935   5.564   0.117  0.00  0.00     0.166 HD
BRANCH  11  13
ATOM     13  C12 <0> d           1.062   7.414   0.239  0.00  0.00     0.090 A 
ATOM     14  S1  <0> d          -0.313   8.466   0.272  0.00  0.00    -0.083 SA
ATOM     15  C15 <0> d           0.516  10.034   0.435  0.00  0.00     0.053 A 
ATOM     16  C14 <0> d           1.818   9.696   0.451  0.00  0.00     0.028 A 
ATOM     17  C13 <0> d           2.136   8.291   0.347  0.00  0.00     0.073 A 
BRANCH  17  18
ATOM     18  C16 <0> d           3.521   7.814   0.354  0.00  0.00     0.295 C 
ATOM     19  O2  <0> d           3.755   6.624   0.265  0.00  0.00    -0.259 OA
BRANCH  18  20
ATOM     20  O3  <0> d           4.537   8.695   0.460  0.00  0.00    -0.322 OA
ATOM     21  C17 <0> d           5.883   8.151   0.461  0.00  0.00     0.213 C 
ENDBRANCH  18  20
ENDBRANCH  17  18
ENDBRANCH  11  13
ENDBRANCH   4  10
BRANCH   1  22
ATOM     22  C8  <0> d          -2.378   1.012  -0.308  0.00  0.00     0.137 C 
BRANCH  22  23
ATOM     23  C7  <0> d          -2.575   0.494   1.118  0.00  0.00     0.020 C 
BRANCH  23  24
ATOM     24  C6  <0> d          -3.834  -0.373   1.176  0.00  0.00     0.002 C 
BRANCH  24  25
ATOM     25  C5  <0> d          -4.031  -0.891   2.602  0.00  0.00     0.000 C 
BRANCH  25  26
ATOM     26  C4  <0> d          -5.291  -1.758   2.661  0.00  0.00     0.000 C 
BRANCH  26  27
ATOM     27  C3  <0> d          -5.488  -2.276   4.087  0.00  0.00    -0.000 C 
BRANCH  27  28
ATOM     28  C2  <0> d          -6.747  -3.142   4.145  0.00  0.00    -0.005 C 
ATOM     29  C1  <0> d          -6.944  -3.660   5.571  0.00  0.00     0.005 C 
ENDBRANCH  27  28
ENDBRANCH  26  27
ENDBRANCH  25  26
ENDBRANCH  24  25
ENDBRANCH  23  24
ENDBRANCH  22  23
ENDBRANCH   1  22
BRANCH   7  30
ATOM     30  C20 <0> d           2.394   1.223  -1.042  0.00  0.00     0.137 C 
BRANCH  30  31
ATOM     31  C21 <0> d           2.593   1.201  -2.559  0.00  0.00     0.020 C 
BRANCH  31  32
ATOM     32  C22 <0> d           3.882   0.447  -2.893  0.00  0.00    -0.003 C 
ATOM     33  C23 <0> d           4.082   0.425  -4.410  0.00  0.00     0.005 C 
ENDBRANCH  31  32
ENDBRANCH  30  31
ENDBRANCH   7  30
TORSDOF 14
