@<TRIPOS>MOLECULE
ZINC08431321
   68    69     0     0     0
SMALL
USER_CHARGES
1-butyl-5-[(2-methoxy-5-nitro-phenyl)aminomethylene]-3-octyl-hexahydropyrimidine-2,4,6-trione
@<TRIPOS>ATOM
      1 C1          7.8798   -2.3360   -6.0376 C.3       1 <0>        -0.1543
      2 C2          7.4869   -2.0813   -4.5810 C.3       1 <0>        -0.1259
      3 C3          6.1856   -1.2778   -4.5369 C.3       1 <0>        -0.1214
      4 C4          5.7926   -1.0231   -3.0803 C.3       1 <0>        -0.1207
      5 C5          4.4913   -0.2196   -3.0361 C.3       1 <0>        -0.1189
      6 C6          4.0984    0.0351   -1.5795 C.3       1 <0>        -0.1147
      7 C7          2.7971    0.8386   -1.5354 C.3       1 <0>        -0.1328
      8 C8          2.4042    1.0933   -0.0788 C.3       1 <0>         0.1108
      9 N1          1.1582    1.8627   -0.0365 N.am      1 <0>        -0.5589
     10 C9          1.2159    3.2104   -0.0254 C.2       1 <0>         0.5858
     11 O1          2.2853    3.7901   -0.0496 O.2       1 <0>        -0.4982
     12 C10        -0.0512    3.9614    0.0173 C.2       1 <0>        -0.4001
     13 C11        -0.0705    5.3445    0.0304 C.2       1 <0>         0.3146
     14 N2         -1.2438    6.0034   -0.0571 N.pl3     1 <0>        -0.5947
     15 C12        -1.2568    7.3991   -0.1554 C.ar      1 <0>         0.1112
     16 C13        -0.0636    8.1077   -0.1572 C.ar      1 <0>        -0.0661
     17 C14        -0.0790    9.4855   -0.2607 C.ar      1 <0>        -0.0477
     18 C15        -1.2816   10.1624   -0.3505 C.ar      1 <0>        -0.0241
     19 C16        -2.4746    9.4641   -0.3430 C.ar      1 <0>        -0.1772
     20 C17        -2.4682    8.0820   -0.2459 C.ar      1 <0>         0.1615
     21 O2         -3.6407    7.3938   -0.2384 O.3       1 <0>        -0.3013
     22 C18        -4.8432    8.1598   -0.3345 C.3       1 <0>         0.0204
     23 N3          1.1949   10.2394   -0.2697 N.pl3     1 <0>         0.0300
     24 O3          1.1829   11.4543   -0.3561 O.2       1 <0>        -0.1516
     25 O4          2.2549    9.6449   -0.1907 O.3       1 <0>        -0.1520
     26 C19        -1.2970    3.1747    0.0449 C.2       1 <0>         0.5818
     27 O5         -2.3820    3.7240    0.0810 O.2       1 <0>        -0.5170
     28 N4         -1.2020    1.8293    0.0250 N.am      1 <0>        -0.5571
     29 C20        -0.0130    1.2113   -0.0092 C.2       1 <0>         0.7092
     30 O6          0.0039   -0.0039   -0.0212 O.2       1 <0>        -0.5245
     31 C21        -2.4262    1.0249    0.0466 C.3       1 <0>         0.1095
     32 C22        -2.8180    0.7312    1.4961 C.3       1 <0>        -0.1333
     33 C23        -4.0966   -0.1088    1.5186 C.3       1 <0>        -0.1191
     34 C24        -4.4884   -0.4025    2.9681 C.3       1 <0>        -0.1523
     35 H1          8.0236   -1.3831   -6.5471 H         1 <0>         0.0532
     36 H2          8.8068   -2.9084   -6.0691 H         1 <0>         0.0533
     37 H3          7.0888   -2.8978   -6.5344 H         1 <0>         0.0530
     38 H4          8.2778   -1.5194   -4.0843 H         1 <0>         0.0606
     39 H5          7.3430   -3.0341   -4.0716 H         1 <0>         0.0604
     40 H6          5.3946   -1.8396   -5.0336 H         1 <0>         0.0603
     41 H7          6.3294   -0.3249   -5.0463 H         1 <0>         0.0606
     42 H8          6.5836   -0.4612   -2.5835 H         1 <0>         0.0620
     43 H9          5.6488   -1.9759   -2.5708 H         1 <0>         0.0616
     44 H10         3.7004   -0.7814   -3.5329 H         1 <0>         0.0612
     45 H11         4.6352    0.7332   -3.5456 H         1 <0>         0.0617
     46 H12         4.8894    0.5970   -1.0828 H         1 <0>         0.0668
     47 H13         3.9546   -0.9177   -1.0701 H         1 <0>         0.0664
     48 H14         2.0062    0.2768   -2.0321 H         1 <0>         0.0682
     49 H15         2.9410    1.7914   -2.0448 H         1 <0>         0.0685
     50 H16         3.1952    1.6552    0.4180 H         1 <0>         0.1016
     51 H17         2.2604    0.1405    0.4307 H         1 <0>         0.1009
     52 H18         0.8542    5.8967    0.1108 H         1 <0>         0.1837
     53 H19        -2.0788    5.5097   -0.0519 H         1 <0>         0.4421
     54 H20         0.8769    7.5821   -0.0824 H         1 <0>         0.1690
     55 H21        -1.2888   11.2397   -0.4270 H         1 <0>         0.1650
     56 H22        -3.4120    9.9959   -0.4133 H         1 <0>         0.1639
     57 H23        -4.8409    8.7244   -1.2669 H         1 <0>         0.0675
     58 H24        -5.7030    7.4901   -0.3174 H         1 <0>         0.1144
     59 H25        -4.9030    8.8494    0.5075 H         1 <0>         0.0675
     60 H26        -3.2305    1.5741   -0.4430 H         1 <0>         0.0999
     61 H27        -2.2538    0.0865   -0.4805 H         1 <0>         0.1020
     62 H28        -2.0138    0.1820    1.9857 H         1 <0>         0.0696
     63 H29        -2.9905    1.6696    2.0231 H         1 <0>         0.0670
     64 H30        -4.9008    0.4404    1.0290 H         1 <0>         0.0652
     65 H31        -3.9242   -1.0472    0.9916 H         1 <0>         0.0668
     66 H32        -3.6842   -0.9517    3.4577 H         1 <0>         0.0548
     67 H33        -4.6609    0.5359    3.4952 H         1 <0>         0.0535
     68 H34        -5.3993   -1.0009    2.9842 H         1 <0>         0.0570
@<TRIPOS>BOND
     1    1    2 1
     2    1   35 1
     3    1   36 1
     4    1   37 1
     5    2    3 1
     6    2   38 1
     7    2   39 1
     8    3    4 1
     9    3   40 1
    10    3   41 1
    11    4    5 1
    12    4   42 1
    13    4   43 1
    14    5    6 1
    15    5   44 1
    16    5   45 1
    17    6    7 1
    18    6   46 1
    19    6   47 1
    20    7    8 1
    21    7   48 1
    22    7   49 1
    23    8    9 1
    24    8   50 1
    25    8   51 1
    26    9   29 am
    27    9   10 am
    28   10   11 2
    29   10   12 1
    30   12   13 2
    31   12   26 1
    32   13   14 1
    33   13   52 1
    34   14   15 1
    35   14   53 1
    36   15   20 ar
    37   15   16 ar
    38   16   17 ar
    39   16   54 1
    40   17   18 ar
    41   17   23 1
    42   18   19 ar
    43   18   55 1
    44   19   20 ar
    45   19   56 1
    46   20   21 1
    47   21   22 1
    48   22   57 1
    49   22   58 1
    50   22   59 1
    51   23   24 2
    52   23   25 1
    53   26   27 2
    54   26   28 am
    55   28   29 am
    56   28   31 1
    57   29   30 2
    58   31   32 1
    59   31   60 1
    60   31   61 1
    61   32   33 1
    62   32   62 1
    63   32   63 1
    64   33   34 1
    65   33   64 1
    66   33   65 1
    67   34   66 1
    68   34   67 1
    69   34   68 1
