@<TRIPOS>MOLECULE
ZINC08431320
   65    66     0     0     0
SMALL
USER_CHARGES
methyl 2-[(1-butyl-3-octyl-2,4,6-trioxo-hexahydropyrimidin-5-ylidene)methylamino]thiophene-3-carboxylate
@<TRIPOS>ATOM
      1 C1         -6.9439   -3.6605    5.5713 C.3       1 <0>        -0.1543
      2 C2         -6.7470   -3.1424    4.1452 C.3       1 <0>        -0.1259
      3 C3         -5.4876   -2.2757    4.0867 C.3       1 <0>        -0.1214
      4 C4         -5.2907   -1.7576    2.6606 C.3       1 <0>        -0.1206
      5 C5         -4.0312   -0.8908    2.6022 C.3       1 <0>        -0.1190
      6 C6         -3.8344   -0.3728    1.1761 C.3       1 <0>        -0.1145
      7 C7         -2.5749    0.4940    1.1177 C.3       1 <0>        -0.1335
      8 C8         -2.3780    1.0120   -0.3084 C.3       1 <0>         0.1109
      9 N1         -1.1721    1.8420   -0.3644 N.am      1 <0>        -0.5586
     10 C9         -1.2719    3.1661   -0.1269 C.2       1 <0>         0.5872
     11 O1         -2.3461    3.6753    0.1318 O.2       1 <0>        -0.4966
     12 C10        -0.0450    3.9803   -0.1947 C.2       1 <0>        -0.3822
     13 C11        -0.0705    5.3437    0.0319 C.2       1 <0>         0.3074
     14 N2          1.0864    6.0342    0.1269 N.pl3     1 <0>        -0.5548
     15 C12         1.0619    7.4137    0.2393 C.2       1 <0>         0.0973
     16 C13         2.1361    8.2915    0.3470 C.2       1 <0>        -0.2140
     17 C14         1.8182    9.6956    0.4508 C.2       1 <0>        -0.0865
     18 C15         0.5161   10.0337    0.4347 C.2       1 <0>        -0.1916
     19 S1         -0.3129    8.4660    0.2723 S.3       1 <0>         0.1671
     20 C16         3.5209    7.8143    0.3541 C.2       1 <0>         0.5238
     21 O2          3.7545    6.6240    0.2645 O.2       1 <0>        -0.5069
     22 O3          4.5371    8.6949    0.4601 O.3       1 <0>        -0.3508
     23 C17         5.8833    8.1510    0.4605 C.3       1 <0>         0.0365
     24 C18         1.2104    3.2769   -0.5142 C.2       1 <0>         0.5736
     25 O4          2.2639    3.8810   -0.5875 O.2       1 <0>        -0.4979
     26 N3          1.1596    1.9451   -0.7227 N.am      1 <0>        -0.5569
     27 C19         0.0059    1.2672   -0.6447 C.2       1 <0>         0.7092
     28 O5          0.0284    0.0684   -0.8435 O.2       1 <0>        -0.5233
     29 C20         2.3936    1.2232   -1.0423 C.3       1 <0>         0.1092
     30 C21         2.5934    1.2012   -2.5590 C.3       1 <0>        -0.1332
     31 C22         3.8823    0.4472   -2.8927 C.3       1 <0>        -0.1192
     32 C23         4.0821    0.4252   -4.4095 C.3       1 <0>        -0.1520
     33 H1         -6.0791   -4.2559    5.8642 H         1 <0>         0.0532
     34 H2         -7.0516   -2.8166    6.2527 H         1 <0>         0.0532
     35 H3         -7.8411   -4.2780    5.6129 H         1 <0>         0.0533
     36 H4         -7.6118   -2.5470    3.8523 H         1 <0>         0.0605
     37 H5         -6.6392   -3.9863    3.4637 H         1 <0>         0.0604
     38 H6         -4.6228   -2.8711    4.3796 H         1 <0>         0.0605
     39 H7         -5.5953   -1.4318    4.7682 H         1 <0>         0.0605
     40 H8         -6.1554   -1.1622    2.3677 H         1 <0>         0.0618
     41 H9         -5.1829   -2.6015    1.9792 H         1 <0>         0.0617
     42 H10        -3.1665   -1.4863    2.8951 H         1 <0>         0.0615
     43 H11        -4.1390   -0.0470    3.2837 H         1 <0>         0.0615
     44 H12        -4.6991    0.2226    0.8832 H         1 <0>         0.0666
     45 H13        -3.7266   -1.2167    0.4946 H         1 <0>         0.0666
     46 H14        -1.7102   -0.1014    1.4106 H         1 <0>         0.0688
     47 H15        -2.6827    1.3378    1.7992 H         1 <0>         0.0685
     48 H16        -3.2428    1.6074   -0.6013 H         1 <0>         0.1016
     49 H17        -2.2703    0.1681   -0.9899 H         1 <0>         0.1017
     50 H18        -1.0154    5.8567    0.1329 H         1 <0>         0.1827
     51 H19         1.9345    5.5635    0.1165 H         1 <0>         0.4501
     52 H20         2.5928   10.4432    0.5375 H         1 <0>         0.1611
     53 H21         0.0789   11.0190    0.5009 H         1 <0>         0.2027
     54 H22         5.9989    7.4677    1.3019 H         1 <0>         0.0651
     55 H23         6.0580    7.6128   -0.4712 H         1 <0>         0.0655
     56 H24         6.6037    8.9640    0.5511 H         1 <0>         0.1052
     57 H25         3.2397    1.7238   -0.5716 H         1 <0>         0.1008
     58 H26         2.3234    0.2011   -0.6702 H         1 <0>         0.1024
     59 H27         1.7473    0.7005   -3.0297 H         1 <0>         0.0695
     60 H28         2.6637    2.2233   -2.9311 H         1 <0>         0.0673
     61 H29         4.7284    0.9479   -2.4220 H         1 <0>         0.0656
     62 H30         3.8120   -0.5749   -2.5206 H         1 <0>         0.0668
     63 H31         3.2360   -0.0755   -4.8802 H         1 <0>         0.0546
     64 H32         4.1523    1.4473   -4.7816 H         1 <0>         0.0536
     65 H33         5.0002   -0.1120   -4.6472 H         1 <0>         0.0569
@<TRIPOS>BOND
     1    1    2 1
     2    1   33 1
     3    1   34 1
     4    1   35 1
     5    2    3 1
     6    2   36 1
     7    2   37 1
     8    3    4 1
     9    3   38 1
    10    3   39 1
    11    4    5 1
    12    4   40 1
    13    4   41 1
    14    5    6 1
    15    5   42 1
    16    5   43 1
    17    6    7 1
    18    6   44 1
    19    6   45 1
    20    7    8 1
    21    7   46 1
    22    7   47 1
    23    8    9 1
    24    8   48 1
    25    8   49 1
    26    9   27 am
    27    9   10 am
    28   10   11 2
    29   10   12 1
    30   12   13 2
    31   12   24 1
    32   13   14 1
    33   13   50 1
    34   14   15 1
    35   14   51 1
    36   15   19 1
    37   15   16 2
    38   16   17 1
    39   16   20 1
    40   17   18 2
    41   17   52 1
    42   18   19 1
    43   18   53 1
    44   20   21 2
    45   20   22 1
    46   22   23 1
    47   23   54 1
    48   23   55 1
    49   23   56 1
    50   24   25 2
    51   24   26 am
    52   26   27 am
    53   26   29 1
    54   27   28 2
    55   29   30 1
    56   29   57 1
    57   29   58 1
    58   30   31 1
    59   30   59 1
    60   30   60 1
    61   31   32 1
    62   31   61 1
    63   31   62 1
    64   32   63 1
    65   32   64 1
    66   32   65 1
