@<TRIPOS>MOLECULE
ZINC08431329
   68    69     0     0     0
SMALL
USER_CHARGES
1-butyl-5-[(4-dimethylaminophenyl)methylene]-3-octyl-hexahydropyrimidine-2,4,6-trione
@<TRIPOS>ATOM
      1 C1          0.8964   -5.7718   11.8194 C.3       1 <0>        -0.1543
      2 C2         -0.2364   -5.1608   10.9921 C.3       1 <0>        -0.1258
      3 C3          0.2977   -3.9655   10.2003 C.3       1 <0>        -0.1214
      4 C4         -0.8351   -3.3546    9.3730 C.3       1 <0>        -0.1204
      5 C5         -0.3010   -2.1593    8.5812 C.3       1 <0>        -0.1188
      6 C6         -1.4338   -1.5483    7.7539 C.3       1 <0>        -0.1140
      7 C7         -0.8997   -0.3530    6.9621 C.3       1 <0>        -0.1324
      8 C8         -2.0325    0.2579    6.1349 C.3       1 <0>         0.1114
      9 N1         -1.5211    1.4024    5.3767 N.am      1 <0>        -0.5611
     10 C9         -1.5609    2.6312    5.9318 C.2       1 <0>         0.5632
     11 O1         -2.0144    2.7983    7.0481 O.2       1 <0>        -0.4681
     12 C10        -1.0395    3.7675    5.1474 C.2       1 <0>        -0.3048
     13 C11        -1.0471    5.0557    5.6498 C.2       1 <0>         0.1494
     14 C12        -1.7509    5.3497    6.8963 C.ar      1 <0>        -0.1928
     15 C13        -3.0482    4.8553    7.1066 C.ar      1 <0>         0.0337
     16 C14        -3.6988    5.1288    8.2743 C.ar      1 <0>        -0.2166
     17 C15        -3.0821    5.9066    9.2532 C.ar      1 <0>         0.2549
     18 C16        -1.7963    6.4045    9.0475 C.ar      1 <0>        -0.2197
     19 C17        -1.1345    6.1326    7.8857 C.ar      1 <0>        -0.0167
     20 N2         -3.7508    6.1866   10.4367 N.pl3     1 <0>        -0.6259
     21 C18        -3.1097    7.0129   11.4625 C.3       1 <0>         0.0866
     22 C19        -5.0979    5.6559   10.6600 C.3       1 <0>         0.0820
     23 C20        -0.5052    3.4669    3.8048 C.2       1 <0>         0.5695
     24 O2         -0.0540    4.3496    3.0997 O.2       1 <0>        -0.4872
     25 N3         -0.5354    2.1872    3.3791 N.am      1 <0>        -0.5614
     26 C21        -1.0250    1.2042    4.1475 C.2       1 <0>         0.7086
     27 O3         -1.0184    0.0720    3.7059 O.2       1 <0>        -0.5242
     28 C22        -0.0155    1.8635    2.0483 C.3       1 <0>         0.1093
     29 C23        -1.1452    1.9629    1.0213 C.3       1 <0>        -0.1334
     30 C24        -0.6021    1.6248   -0.3686 C.3       1 <0>        -0.1194
     31 C25        -1.7319    1.7243   -1.3956 C.3       1 <0>        -0.1522
     32 H1          0.5159   -6.6233   12.3835 H         1 <0>         0.0534
     33 H2          1.6938   -6.1035   11.1544 H         1 <0>         0.0534
     34 H3          1.2865   -5.0238   12.5096 H         1 <0>         0.0531
     35 H4         -1.0338   -4.8291   11.6571 H         1 <0>         0.0602
     36 H5         -0.6266   -5.9088   10.3019 H         1 <0>         0.0606
     37 H6          1.0951   -4.2973    9.5353 H         1 <0>         0.0608
     38 H7          0.6878   -3.2175   10.8905 H         1 <0>         0.0604
     39 H8         -1.6325   -3.0228   10.0380 H         1 <0>         0.0612
     40 H9         -1.2253   -4.1026    8.6828 H         1 <0>         0.0618
     41 H10         0.4964   -2.4910    7.9162 H         1 <0>         0.0617
     42 H11         0.0891   -1.4113    9.2714 H         1 <0>         0.0611
     43 H12        -2.2312   -1.2166    8.4189 H         1 <0>         0.0654
     44 H13        -1.8240   -2.2963    7.0637 H         1 <0>         0.0664
     45 H14        -0.1023   -0.6848    6.2972 H         1 <0>         0.0685
     46 H15        -0.5096    0.3950    7.6523 H         1 <0>         0.0676
     47 H16        -2.8299    0.5897    6.7998 H         1 <0>         0.0996
     48 H17        -2.4227   -0.4901    5.4446 H         1 <0>         0.1004
     49 H18        -0.5328    5.8445    5.1209 H         1 <0>         0.1550
     50 H19        -3.5284    4.2561    6.3472 H         1 <0>         0.1163
     51 H20        -4.6951    4.7456    8.4387 H         1 <0>         0.1273
     52 H21        -1.3233    7.0068    9.8090 H         1 <0>         0.1275
     53 H22        -0.1385    6.5191    7.7273 H         1 <0>         0.1272
     54 H23        -3.3537    8.0611   11.2896 H         1 <0>         0.0538
     55 H24        -3.4692    6.7138   12.4470 H         1 <0>         0.0701
     56 H25        -2.0290    6.8787   11.4140 H         1 <0>         0.0727
     57 H26        -5.3692    4.9950    9.8368 H         1 <0>         0.0817
     58 H27        -5.1179    5.0976   11.5960 H         1 <0>         0.0609
     59 H28        -5.8090    6.4803   10.7135 H         1 <0>         0.0573
     60 H29         0.3846    0.8495    2.0513 H         1 <0>         0.1016
     61 H30         0.7762    2.5656    1.7868 H         1 <0>         0.1007
     62 H31        -1.5452    2.9769    1.0183 H         1 <0>         0.0679
     63 H32        -1.9368    1.2608    1.2828 H         1 <0>         0.0689
     64 H33        -0.2021    0.6109   -0.3655 H         1 <0>         0.0664
     65 H34         0.1895    2.3270   -0.6301 H         1 <0>         0.0661
     66 H35        -2.1319    2.7382   -1.3986 H         1 <0>         0.0542
     67 H36        -1.3450    1.4834   -2.3857 H         1 <0>         0.0569
     68 H37        -2.5235    1.0221   -1.1341 H         1 <0>         0.0542
@<TRIPOS>BOND
     1    1    2 1
     2    1   32 1
     3    1   33 1
     4    1   34 1
     5    2    3 1
     6    2   35 1
     7    2   36 1
     8    3    4 1
     9    3   37 1
    10    3   38 1
    11    4    5 1
    12    4   39 1
    13    4   40 1
    14    5    6 1
    15    5   41 1
    16    5   42 1
    17    6    7 1
    18    6   43 1
    19    6   44 1
    20    7    8 1
    21    7   45 1
    22    7   46 1
    23    8    9 1
    24    8   47 1
    25    8   48 1
    26    9   26 am
    27    9   10 am
    28   10   11 2
    29   10   12 1
    30   12   13 2
    31   12   23 1
    32   13   14 1
    33   13   49 1
    34   14   19 ar
    35   14   15 ar
    36   15   16 ar
    37   15   50 1
    38   16   17 ar
    39   16   51 1
    40   17   18 ar
    41   17   20 1
    42   18   19 ar
    43   18   52 1
    44   19   53 1
    45   20   21 1
    46   20   22 1
    47   21   54 1
    48   21   55 1
    49   21   56 1
    50   22   57 1
    51   22   58 1
    52   22   59 1
    53   23   24 2
    54   23   25 am
    55   25   26 am
    56   25   28 1
    57   26   27 2
    58   28   29 1
    59   28   60 1
    60   28   61 1
    61   29   30 1
    62   29   62 1
    63   29   63 1
    64   30   31 1
    65   30   64 1
    66   30   65 1
    67   31   66 1
    68   31   67 1
    69   31   68 1
