REMARK  14 active torsions:
REMARK  status: ('A' for Active; 'I' for Inactive)
REMARK    1  A    between atoms: C2_2  and  C3_3 
REMARK    2  A    between atoms: C3_3  and  C4_4 
REMARK    3  A    between atoms: C4_4  and  C5_5 
REMARK    4  A    between atoms: C5_5  and  C6_6 
REMARK    5  A    between atoms: C6_6  and  C7_7 
REMARK    6  A    between atoms: C7_7  and  C8_8 
REMARK    7  A    between atoms: C8_8  and  N1_9 
REMARK    8  A    between atoms: C10_12  and  C11_13 
REMARK    9  A    between atoms: N2_14  and  C12_15 
REMARK   10  A    between atoms: C14_17  and  N3_23 
REMARK   11  A    between atoms: C17_20  and  O2_21 
REMARK   12  A    between atoms: N4_28  and  C21_31 
REMARK   13  A    between atoms: C21_31  and  C22_32 
REMARK   14  A    between atoms: C22_32  and  C23_33 
ROOT
ATOM      1  N1  <0> d           1.158   1.863  -0.036  0.00  0.00    -0.265 N 
ATOM      2  C9  <0> d           1.216   3.210  -0.025  0.00  0.00     0.268 A 
ATOM      3  O1  <0> d           2.285   3.790  -0.050  0.00  0.00    -0.267 OA
ATOM      4  C10 <0> d          -0.051   3.961   0.017  0.00  0.00     0.116 A 
ATOM      5  C19 <0> d          -1.297   3.175   0.045  0.00  0.00     0.268 A 
ATOM      6  O5  <0> d          -2.382   3.724   0.081  0.00  0.00    -0.267 OA
ATOM      7  N4  <0> d          -1.202   1.829   0.025  0.00  0.00    -0.265 N 
ATOM      8  C20 <0> d          -0.013   1.211  -0.009  0.00  0.00     0.334 A 
ATOM      9  O6  <0> d           0.004  -0.004  -0.021  0.00  0.00    -0.246 OA
ENDROOT
BRANCH   4  10
ATOM     10  C11 <0> d          -0.070   5.345   0.030  0.00  0.00     0.111 C 
ATOM     11  N2  <0> d          -1.244   6.003  -0.057  0.00  0.00    -0.362 N 
ATOM     12  H19 <0> d          -2.079   5.510  -0.052  0.00  0.00     0.165 HD
BRANCH  11  13
ATOM     13  C12 <0> d          -1.257   7.399  -0.155  0.00  0.00     0.068 A 
ATOM     14  C17 <0> d          -2.468   8.082  -0.246  0.00  0.00     0.095 A 
ATOM     15  C16 <0> d          -2.475   9.464  -0.343  0.00  0.00     0.041 A 
ATOM     16  C15 <0> d          -1.282  10.162  -0.350  0.00  0.00     0.039 A 
ATOM     17  C14 <0> d          -0.079   9.486  -0.261  0.00  0.00     0.105 A 
ATOM     18  C13 <0> d          -0.064   8.108  -0.157  0.00  0.00     0.068 A 
BRANCH  14  19
ATOM     19  O2  <0> d          -3.641   7.394  -0.238  0.00  0.00    -0.354 OA
ATOM     20  C18 <0> d          -4.843   8.160  -0.335  0.00  0.00     0.210 C 
ENDBRANCH  14  19
BRANCH  17  21
ATOM     21  N3  <0> d           1.195  10.239  -0.270  0.00  0.00    -0.116 N 
ATOM     22  O3  <0> d           1.183  11.454  -0.356  0.00  0.00    -0.532 OA
ATOM     23  O4  <0> d           2.255   9.645  -0.191  0.00  0.00    -0.532 OA
ENDBRANCH  17  21
ENDBRANCH  11  13
ENDBRANCH   4  10
BRANCH   1  24
ATOM     24  C8  <0> d           2.404   1.093  -0.079  0.00  0.00     0.137 C 
BRANCH  24  25
ATOM     25  C7  <0> d           2.797   0.839  -1.535  0.00  0.00     0.020 C 
BRANCH  25  26
ATOM     26  C6  <0> d           4.098   0.035  -1.579  0.00  0.00     0.002 C 
BRANCH  26  27
ATOM     27  C5  <0> d           4.491  -0.220  -3.036  0.00  0.00     0.000 C 
BRANCH  27  28
ATOM     28  C4  <0> d           5.793  -1.023  -3.080  0.00  0.00     0.000 C 
BRANCH  28  29
ATOM     29  C3  <0> d           6.186  -1.278  -4.537  0.00  0.00    -0.000 C 
BRANCH  29  30
ATOM     30  C2  <0> d           7.487  -2.081  -4.581  0.00  0.00    -0.005 C 
ATOM     31  C1  <0> d           7.880  -2.336  -6.038  0.00  0.00     0.005 C 
ENDBRANCH  29  30
ENDBRANCH  28  29
ENDBRANCH  27  28
ENDBRANCH  26  27
ENDBRANCH  25  26
ENDBRANCH  24  25
ENDBRANCH   1  24
BRANCH   7  32
ATOM     32  C21 <0> d          -2.426   1.025   0.047  0.00  0.00     0.137 C 
BRANCH  32  33
ATOM     33  C22 <0> d          -2.818   0.731   1.496  0.00  0.00     0.020 C 
BRANCH  33  34
ATOM     34  C23 <0> d          -4.097  -0.109   1.519  0.00  0.00    -0.003 C 
ATOM     35  C24 <0> d          -4.488  -0.403   2.968  0.00  0.00     0.005 C 
ENDBRANCH  33  34
ENDBRANCH  32  33
ENDBRANCH   7  32
TORSDOF 14
