REMARK  8 active torsions:
REMARK  status: ('A' for Active; 'I' for Inactive)
REMARK    1  A    between atoms: C2_2  and  C3_3 
REMARK    2  A    between atoms: C3_3  and  C4_4 
REMARK    3  A    between atoms: C4_4  and  N1_5 
REMARK    4  A    between atoms: C7_9  and  N2_10 
REMARK    5  A    between atoms: N2_10  and  C8_11 
REMARK    6  A    between atoms: N3_21  and  C16_24 
REMARK    7  A    between atoms: C16_24  and  C17_25 
REMARK    8  A    between atoms: C17_25  and  C18_26 
ROOT
ATOM      1  N1  <0> d           6.044  -0.917  -0.275  0.00  0.00    -0.265 N 
ATOM      2  C5  <0> d           4.911  -0.195  -0.155  0.00  0.00     0.268 A 
ATOM      3  O1  <0> d           4.949   1.017  -0.060  0.00  0.00    -0.267 OA
ATOM      4  C6  <0> d           3.625  -0.915  -0.143  0.00  0.00     0.116 A 
ATOM      5  C7  <0> d           2.422  -0.242  -0.023  0.00  0.00     0.111 C 
ATOM      6  C14 <0> d           3.676  -2.383  -0.259  0.00  0.00     0.268 A 
ATOM      7  O2  <0> d           2.657  -3.047  -0.251  0.00  0.00    -0.267 OA
ATOM      8  N3  <0> d           4.885  -2.971  -0.378  0.00  0.00    -0.265 N 
ATOM      9  C15 <0> d           6.016  -2.253  -0.382  0.00  0.00     0.334 A 
ATOM     10  O3  <0> d           7.073  -2.844  -0.486  0.00  0.00    -0.246 OA
ENDROOT
BRANCH   5  11
ATOM     11  N2  <0> d           2.399   1.106  -0.040  0.00  0.00    -0.363 N 
ATOM     12  H11 <0> d           3.231   1.605  -0.059  0.00  0.00     0.165 HD
BRANCH  11  13
ATOM     13  C8  <0> d           1.177   1.785  -0.031  0.00  0.00     0.054 A 
ATOM     14  C13 <0> d           1.151   3.175  -0.049  0.00  0.00     0.062 A 
ATOM     15  C12 <0> d          -0.059   3.842  -0.039  0.00  0.00     0.050 A 
ATOM     16 Cl1  <0> d           2.638   4.071  -0.082  0.00  0.00    -0.082 Cl
ATOM     17  C11 <0> d          -1.244   3.128  -0.013  0.00  0.00     0.035 A 
ATOM     18  C10 <0> d          -1.221   1.744  -0.001  0.00  0.00     0.026 A 
ATOM     19 Cl2  <0> d          -2.762   3.970  -0.002  0.00  0.00    -0.084 Cl
ATOM     20  C9  <0> d          -0.015   1.072  -0.004  0.00  0.00     0.033 A 
ENDBRANCH  11  13
ENDBRANCH   5  11
BRANCH   1  21
ATOM     21  C4  <0> d           7.335  -0.225  -0.289  0.00  0.00     0.137 C 
BRANCH  21  22
ATOM     22  C3  <0> d           7.863  -0.100   1.141  0.00  0.00     0.020 C 
BRANCH  22  23
ATOM     23  C2  <0> d           9.211   0.624   1.126  0.00  0.00    -0.003 C 
ATOM     24  C1  <0> d           9.738   0.749   2.557  0.00  0.00     0.005 C 
ENDBRANCH  22  23
ENDBRANCH  21  22
ENDBRANCH   1  21
BRANCH   8  25
ATOM     25  C16 <0> d           4.962  -4.429  -0.500  0.00  0.00     0.138 C 
BRANCH  25  26
ATOM     26  C17 <0> d           5.067  -5.053   0.893  0.00  0.00     0.035 C 
BRANCH  26  27
ATOM     27  C18 <0> d           5.148  -6.575   0.765  0.00  0.00     0.116 C 
ATOM     28 Cl3  <0> d           5.272  -7.310   2.407  0.00  0.00    -0.130 Cl
ENDBRANCH  26  27
ENDBRANCH  25  26
ENDBRANCH   8  25
TORSDOF 8
