REMARK  12 active torsions:
REMARK  status: ('A' for Active; 'I' for Inactive)
REMARK    1  A    between atoms: C2_2  and  C3_3 
REMARK    2  A    between atoms: C3_3  and  C4_4 
REMARK    3  A    between atoms: C4_4  and  C5_5 
REMARK    4  A    between atoms: C5_5  and  C6_6 
REMARK    5  A    between atoms: C6_6  and  C7_7 
REMARK    6  A    between atoms: C7_7  and  C8_8 
REMARK    7  A    between atoms: C8_8  and  C9_9 
REMARK       I    between atoms: C9_9  and  N1_11 
REMARK    8  A    between atoms: N1_11  and  C10_12 
REMARK    9  A    between atoms: C13_15  and  C16_18 
REMARK   10  A    between atoms: C16_18  and  O3_20 
REMARK   11  A    between atoms: O3_20  and  C17_21 
REMARK   12  A    between atoms: C17_21  and  C18_22 
ROOT
ATOM      1  C10 <0> d          -1.266   1.572   0.005  0.00  0.00     0.034 A 
ATOM      2  C11 <0> d          -1.460   2.765  -0.684  0.00  0.00     0.030 A 
ATOM      3  C12 <0> d          -2.699   3.364  -0.693  0.00  0.00     0.020 A 
ATOM      4  C13 <0> d          -3.762   2.778   0.001  0.00  0.00     0.039 A 
ATOM      5  C14 <0> d          -3.562   1.582   0.697  0.00  0.00     0.020 A 
ATOM      6  C15 <0> d          -2.322   0.986   0.697  0.00  0.00     0.030 A 
ENDROOT
BRANCH   1   7
ATOM      7  N1  <0> d          -0.011   0.966   0.007  0.00  0.00    -0.327 N 
ATOM      8  C9  <0> d           1.103   1.724   0.010  0.00  0.00     0.222 C 
ATOM      9  O1  <0> d           1.016   2.931  -0.068  0.00  0.00    -0.273 OA
ATOM     10  H18 <0> d           0.060  -0.002   0.003  0.00  0.00     0.169 HD
BRANCH   8  11
ATOM     11  C8  <0> d           2.458   1.071   0.111  0.00  0.00     0.103 C 
BRANCH  11  12
ATOM     12  C7  <0> d           3.545   2.148   0.093  0.00  0.00     0.009 C 
BRANCH  12  13
ATOM     13  C6  <0> d           4.921   1.485   0.195  0.00  0.00     0.000 C 
BRANCH  13  14
ATOM     14  C5  <0> d           6.008   2.562   0.177  0.00  0.00     0.000 C 
BRANCH  14  15
ATOM     15  C4  <0> d           7.383   1.899   0.279  0.00  0.00     0.000 C 
BRANCH  15  16
ATOM     16  C3  <0> d           8.470   2.975   0.261  0.00  0.00    -0.000 C 
BRANCH  16  17
ATOM     17  C2  <0> d           9.846   2.313   0.363  0.00  0.00    -0.005 C 
ATOM     18  C1  <0> d          10.933   3.389   0.345  0.00  0.00     0.005 C 
ENDBRANCH  16  17
ENDBRANCH  15  16
ENDBRANCH  14  15
ENDBRANCH  13  14
ENDBRANCH  12  13
ENDBRANCH  11  12
ENDBRANCH   8  11
ENDBRANCH   1   7
BRANCH   4  19
ATOM     19  C16 <0> d          -5.090   3.419  -0.002  0.00  0.00     0.293 C 
ATOM     20  O2  <0> d          -6.012   2.908   0.601  0.00  0.00    -0.259 OA
BRANCH  19  21
ATOM     21  O3  <0> d          -5.280   4.572  -0.674  0.00  0.00    -0.318 OA
BRANCH  21  22
ATOM     22  C17 <0> d          -6.613   5.146  -0.633  0.00  0.00     0.178 C 
BRANCH  22  23
ATOM     23  C18 <0> d          -6.635   6.442  -1.446  0.00  0.00     0.022 C 
ATOM     24  C19 <0> d          -8.039   7.048  -1.403  0.00  0.00     0.007 C 
ENDBRANCH  22  23
ENDBRANCH  21  22
ENDBRANCH  19  21
ENDBRANCH   4  19
TORSDOF 12
